<?xml version="1.0" encoding="UTF-8"?>
<routes xmlns:xsi="http://www.w3.org/2001/XMLSchema-instance" xsi:noNamespaceSchemaLocation="http://sumo.dlr.de/xsd/routes_file.xsd">

    <vType id="motorcycle_ind" vClass="motorcycle" latAlignment="arbitrary" minGapLat="0.1" maxSpeed="15.0" length="2.0" width="0.8" accel="2.5" decel="4.5"/>
    <vType id="car_ind" vClass="passenger" latAlignment="arbitrary" minGapLat="0.3" maxSpeed="15.0" length="4.5" width="1.8" accel="2.0" decel="4.0"/>
    <vType id="auto_ind" vClass="taxi" latAlignment="arbitrary" minGapLat="0.2" maxSpeed="12.0" length="2.8" width="1.4" guiShape="rickshaw" accel="1.5" decel="3.5"/>
    <vType id="bus_ind" vClass="bus" latAlignment="center" minGapLat="0.5" maxSpeed="10.0" length="10.0" width="2.5" accel="1.0" decel="3.0"/>
        <trip id="0" type="bus_ind" depart="0.62" from="-140112584#4" to="-140111417#3" departPos="random_free" departSpeed="max"/>
    <trip id="1" type="motorcycle_ind" depart="2.26" from="140112584#3" to="-140112579#2" departPos="random_free" departSpeed="max"/>
    <trip id="2" type="car_ind" depart="3.00" from="140112579#3" to="140112584#4" departPos="random_free" departSpeed="max"/>
    <trip id="3" type="auto_ind" depart="6.86" from="1480562496" to="E0" departPos="random_free" departSpeed="max"/>
    <trip id="4" type="car_ind" depart="7.35" from="-E0" to="-140111415#0" departPos="random_free" departSpeed="max"/>
    <trip id="5" type="car_ind" depart="7.55" from="-140112584#2" to="-1480562496" departPos="random_free" departSpeed="max"/>
    <trip id="6" type="motorcycle_ind" depart="13.25" from="-140111396#7" to="140111396#8" departPos="random_free" departSpeed="max"/>
    <trip id="7" type="bus_ind" depart="15.14" from="-670380636#3" to="-1480562496" departPos="random_free" departSpeed="max"/>
    <trip id="8" type="motorcycle_ind" depart="15.24" from="140111396#7" to="1475456268#0" departPos="random_free" departSpeed="max"/>
    <trip id="9" type="motorcycle_ind" depart="15.40" from="1475456268#4" to="140111417#3" departPos="random_free" departSpeed="max"/>
    <trip id="10" type="auto_ind" depart="16.11" from="140112584#2" to="1475456268#1" departPos="random_free" departSpeed="max"/>
    <trip id="11" type="car_ind" depart="16.13" from="-1475456268#1" to="-140111396#6" departPos="random_free" departSpeed="max"/>
    <trip id="12" type="motorcycle_ind" depart="18.40" from="-140112584#4" to="E5" departPos="random_free" departSpeed="max"/>
    <trip id="13" type="motorcycle_ind" depart="23.11" from="-670380636#3" to="-E4.171" departPos="random_free" departSpeed="max"/>
    <trip id="14" type="motorcycle_ind" depart="24.45" from="-1480562496" to="-140111396#7" departPos="random_free" departSpeed="max"/>
    <trip id="15" type="car_ind" depart="25.28" from="140111417#2" to="140111396#4" departPos="random_free" departSpeed="max"/>
    <trip id="16" type="auto_ind" depart="28.78" from="140111417#3" to="1475456268#1" departPos="random_free" departSpeed="max"/>
    <trip id="17" type="auto_ind" depart="35.43" from="140111396#8" to="-1475456268#3" departPos="random_free" departSpeed="max"/>
    <trip id="18" type="bus_ind" depart="35.49" from="-140111417#0" to="1475456268#0" departPos="random_free" departSpeed="max"/>
    <trip id="19" type="car_ind" depart="40.07" from="-E4.171" to="-140111406#0" departPos="random_free" departSpeed="max"/>
    <trip id="20" type="motorcycle_ind" depart="41.39" from="140111396#0" to="-140111396#4" departPos="random_free" departSpeed="max"/>
    <trip id="21" type="bus_ind" depart="41.49" from="140111415#0" to="-140112582#1" departPos="random_free" departSpeed="max"/>
    <trip id="22" type="car_ind" depart="43.54" from="-1480562496" to="140111417#0" departPos="random_free" departSpeed="max"/>
    <trip id="23" type="auto_ind" depart="48.79" from="-140112583#1" to="1475456268#0" departPos="random_free" departSpeed="max"/>
    <trip id="24" type="motorcycle_ind" depart="55.98" from="-140112583#1" to="140111396#4" departPos="random_free" departSpeed="max"/>
    <trip id="25" type="bus_ind" depart="56.21" from="-E4" to="140111396#7" departPos="random_free" departSpeed="max"/>
    <trip id="26" type="motorcycle_ind" depart="59.60" from="E4.186" to="140112584#0" departPos="random_free" departSpeed="max"/>
    <trip id="27" type="motorcycle_ind" depart="59.61" from="-E4.171" to="-140111417#0" departPos="random_free" departSpeed="max"/>
    <trip id="28" type="motorcycle_ind" depart="61.83" from="140111417#0" to="1475456268#1" departPos="random_free" departSpeed="max"/>
    <trip id="29" type="bus_ind" depart="62.62" from="-140111417#2" to="140112584#2" departPos="random_free" departSpeed="max"/>
    <trip id="30" type="motorcycle_ind" depart="64.45" from="140112584#5" to="-140111396#0" departPos="random_free" departSpeed="max"/>
    <trip id="31" type="motorcycle_ind" depart="65.17" from="-140111396#6" to="140111406#0" departPos="random_free" departSpeed="max"/>
    <trip id="32" type="car_ind" depart="66.50" from="670380636#1" to="-140111406#2" departPos="random_free" departSpeed="max"/>
    <trip id="33" type="car_ind" depart="66.75" from="140111406#1" to="-140111415#0" departPos="random_free" departSpeed="max"/>
    <trip id="34" type="motorcycle_ind" depart="67.23" from="140111396#4" to="140111406#1" departPos="random_free" departSpeed="max"/>
    <trip id="35" type="bus_ind" depart="67.63" from="140111417#3" to="-140112587#1" departPos="random_free" departSpeed="max"/>
    <trip id="36" type="motorcycle_ind" depart="72.86" from="1475456268#4" to="140111396#0" departPos="random_free" departSpeed="max"/>
    <trip id="37" type="motorcycle_ind" depart="75.13" from="-E3" to="140111396#2" departPos="random_free" departSpeed="max"/>
    <trip id="38" type="motorcycle_ind" depart="76.25" from="140111396#7" to="-140111396#7" departPos="random_free" departSpeed="max"/>
    <trip id="39" type="auto_ind" depart="77.39" from="-140111417#0" to="-140111417#3" departPos="random_free" departSpeed="max"/>
    <trip id="40" type="bus_ind" depart="84.16" from="140112584#5" to="-140111396#0" departPos="random_free" departSpeed="max"/>
    <trip id="41" type="motorcycle_ind" depart="86.53" from="-140112583#1" to="140112584#2" departPos="random_free" departSpeed="max"/>
    <trip id="42" type="car_ind" depart="90.64" from="-140111415#1" to="-E3" departPos="random_free" departSpeed="max"/>
    <trip id="43" type="car_ind" depart="93.87" from="-140112584#3" to="E1" departPos="random_free" departSpeed="max"/>
    <trip id="44" type="motorcycle_ind" depart="99.54" from="670380636#1" to="140111406#2" departPos="random_free" departSpeed="max"/>
    <trip id="45" type="motorcycle_ind" depart="104.44" from="140112584#4" to="140112584#0" departPos="random_free" departSpeed="max"/>
    <trip id="46" type="car_ind" depart="111.26" from="-E7" to="-E4" departPos="random_free" departSpeed="max"/>
    <trip id="47" type="car_ind" depart="113.33" from="140112587#1" to="-140112583#1" departPos="random_free" departSpeed="max"/>
    <trip id="48" type="motorcycle_ind" depart="116.78" from="140111415#0" to="140111417#0" departPos="random_free" departSpeed="max"/>
    <trip id="49" type="car_ind" depart="118.19" from="1480562496" to="140111417#3" departPos="random_free" departSpeed="max"/>
    <trip id="50" type="car_ind" depart="118.24" from="-140112582#1" to="140112579#2" departPos="random_free" departSpeed="max"/>
    <trip id="51" type="car_ind" depart="118.93" from="-140112587#1" to="-1475456268#3" departPos="random_free" departSpeed="max"/>
    <trip id="52" type="motorcycle_ind" depart="119.38" from="-E8" to="-140111396#6" departPos="random_free" departSpeed="max"/>
    <trip id="53" type="auto_ind" depart="121.86" from="140111396#7" to="E1" departPos="random_free" departSpeed="max"/>
    <trip id="54" type="bus_ind" depart="124.29" from="140111396#4" to="-E4" departPos="random_free" departSpeed="max"/>
    <trip id="55" type="auto_ind" depart="127.31" from="-140112587#2" to="-140112584#5" departPos="random_free" departSpeed="max"/>
    <trip id="56" type="auto_ind" depart="130.05" from="140111417#3" to="E8" departPos="random_free" departSpeed="max"/>
    <trip id="57" type="motorcycle_ind" depart="141.84" from="-140112584#4" to="140112584#4" departPos="random_free" departSpeed="max"/>
    <trip id="58" type="motorcycle_ind" depart="143.23" from="-140112584#0" to="140112584#5" departPos="random_free" departSpeed="max"/>
    <trip id="59" type="auto_ind" depart="152.11" from="140111396#7" to="E8" departPos="random_free" departSpeed="max"/>
    <trip id="60" type="motorcycle_ind" depart="152.22" from="-140112587#2" to="140111396#0" departPos="random_free" departSpeed="max"/>
    <trip id="61" type="motorcycle_ind" depart="152.43" from="E4.186" to="140112584#2" departPos="random_free" departSpeed="max"/>
    <trip id="62" type="motorcycle_ind" depart="153.09" from="-140112584#3" to="E5" departPos="random_free" departSpeed="max"/>
    <trip id="63" type="car_ind" depart="156.89" from="-1475456268#4" to="140111396#7" departPos="random_free" departSpeed="max"/>
    <trip id="64" type="motorcycle_ind" depart="173.33" from="140112587#2" to="-140111406#1" departPos="random_free" departSpeed="max"/>
    <trip id="65" type="car_ind" depart="176.85" from="140112584#5" to="-140112583#2" departPos="random_free" departSpeed="max"/>
    <trip id="66" type="motorcycle_ind" depart="179.75" from="140112583#2" to="E5" departPos="random_free" departSpeed="max"/>
    <trip id="67" type="auto_ind" depart="179.94" from="140112587#1" to="-140112584#4" departPos="random_free" departSpeed="max"/>
    <trip id="68" type="auto_ind" depart="181.17" from="140111417#2" to="140111396#0" departPos="random_free" departSpeed="max"/>
    <trip id="69" type="bus_ind" depart="184.75" from="-140111396#0" to="-140111396#2" departPos="random_free" departSpeed="max"/>
    <trip id="70" type="bus_ind" depart="186.52" from="670380636#1" to="140111406#2" departPos="random_free" departSpeed="max"/>
    <trip id="71" type="motorcycle_ind" depart="189.80" from="-140112579#3" to="140111417#0" departPos="random_free" departSpeed="max"/>
    <trip id="72" type="motorcycle_ind" depart="192.62" from="-140111406#1" to="-1475456268#4" departPos="random_free" departSpeed="max"/>
    <trip id="73" type="motorcycle_ind" depart="198.77" from="-140112587#2" to="-140111396#7" departPos="random_free" departSpeed="max"/>
    <trip id="74" type="car_ind" depart="200.10" from="-140111396#8" to="670380636#1" departPos="random_free" departSpeed="max"/>
    <trip id="75" type="auto_ind" depart="200.98" from="-E4.171" to="-140112587#1" departPos="random_free" departSpeed="max"/>
    <trip id="76" type="motorcycle_ind" depart="203.44" from="-140111406#2" to="1480562496" departPos="random_free" departSpeed="max"/>
    <trip id="77" type="auto_ind" depart="203.53" from="1475456268#1" to="1480562496" departPos="random_free" departSpeed="max"/>
    <trip id="78" type="car_ind" depart="204.88" from="-140112579#3" to="-140111417#2" departPos="random_free" departSpeed="max"/>
    <trip id="79" type="motorcycle_ind" depart="205.70" from="-E0" to="-1480562496" departPos="random_free" departSpeed="max"/>
    <trip id="80" type="car_ind" depart="209.04" from="1480562496" to="140112584#4" departPos="random_free" departSpeed="max"/>
    <trip id="81" type="car_ind" depart="209.36" from="1475456268#0" to="-E4" departPos="random_free" departSpeed="max"/>
    <trip id="82" type="motorcycle_ind" depart="216.40" from="-140111417#2" to="140112587#1" departPos="random_free" departSpeed="max"/>
    <trip id="83" type="car_ind" depart="216.97" from="1475456268#0" to="-1475456268#3" departPos="random_free" departSpeed="max"/>
    <trip id="84" type="motorcycle_ind" depart="219.67" from="-140111415#1" to="-140111406#0" departPos="random_free" departSpeed="max"/>
    <trip id="85" type="motorcycle_ind" depart="219.70" from="-140112584#2" to="140111415#0" departPos="random_free" departSpeed="max"/>
    <trip id="86" type="car_ind" depart="220.75" from="E3" to="-140111396#8" departPos="random_free" departSpeed="max"/>
    <trip id="87" type="motorcycle_ind" depart="222.61" from="-140111396#8" to="140112587#2" departPos="random_free" departSpeed="max"/>
    <trip id="88" type="bus_ind" depart="225.85" from="670380636#1" to="140111396#0" departPos="random_free" departSpeed="max"/>
    <trip id="89" type="bus_ind" depart="225.86" from="-E1" to="140112584#2" departPos="random_free" departSpeed="max"/>
    <trip id="90" type="auto_ind" depart="231.03" from="140112583#2" to="E1" departPos="random_free" departSpeed="max"/>
    <trip id="91" type="auto_ind" depart="231.13" from="-140111417#3" to="1475456268#0" departPos="random_free" departSpeed="max"/>
    <trip id="92" type="car_ind" depart="238.25" from="1475456268#3" to="-140111415#1" departPos="random_free" departSpeed="max"/>
    <trip id="93" type="auto_ind" depart="239.12" from="140112584#2" to="140112584#3" departPos="random_free" departSpeed="max"/>
    <trip id="94" type="motorcycle_ind" depart="241.96" from="-140112584#4" to="-140111396#8" departPos="random_free" departSpeed="max"/>
    <trip id="95" type="auto_ind" depart="243.61" from="-670380636#1" to="-140112579#3" departPos="random_free" departSpeed="max"/>
    <trip id="96" type="car_ind" depart="249.95" from="140111396#4" to="E1" departPos="random_free" departSpeed="max"/>
    <trip id="97" type="auto_ind" depart="255.69" from="140111415#0" to="-140111396#7" departPos="random_free" departSpeed="max"/>
    <trip id="98" type="motorcycle_ind" depart="256.22" from="140112584#0" to="-1475456268#3" departPos="random_free" departSpeed="max"/>
    <trip id="99" type="motorcycle_ind" depart="257.53" from="140112579#2" to="140112583#1" departPos="random_free" departSpeed="max"/>
    <trip id="100" type="motorcycle_ind" depart="257.87" from="-E4.171" to="-140112584#4" departPos="random_free" departSpeed="max"/>
    <trip id="101" type="bus_ind" depart="260.00" from="140111406#2" to="1475456268#4" departPos="random_free" departSpeed="max"/>
    <trip id="102" type="bus_ind" depart="266.96" from="E3" to="E4.186" departPos="random_free" departSpeed="max"/>
    <trip id="103" type="motorcycle_ind" depart="271.47" from="-140111396#6" to="-1480562496" departPos="random_free" departSpeed="max"/>
    <trip id="104" type="motorcycle_ind" depart="277.05" from="-140111396#8" to="1475456268#4" departPos="random_free" departSpeed="max"/>
    <trip id="105" type="bus_ind" depart="277.45" from="140111396#2" to="-140112579#2" departPos="random_free" departSpeed="max"/>
    <trip id="106" type="bus_ind" depart="282.23" from="1475456268#3" to="-E4.171" departPos="random_free" departSpeed="max"/>
    <trip id="107" type="bus_ind" depart="282.61" from="-140111396#7" to="-1475456268#1" departPos="random_free" departSpeed="max"/>
    <trip id="108" type="car_ind" depart="284.51" from="-E5" to="-140111396#4" departPos="random_free" departSpeed="max"/>
    <trip id="109" type="motorcycle_ind" depart="285.90" from="-1475456268#3" to="E7" departPos="random_free" departSpeed="max"/>
    <trip id="110" type="motorcycle_ind" depart="287.42" from="140111417#2" to="140111417#3" departPos="random_free" departSpeed="max"/>
    <trip id="111" type="motorcycle_ind" depart="287.85" from="1480562496" to="-1475456268#1" departPos="random_free" departSpeed="max"/>
    <trip id="112" type="motorcycle_ind" depart="288.59" from="E4" to="-140111417#0" departPos="random_free" departSpeed="max"/>
    <trip id="113" type="motorcycle_ind" depart="289.91" from="-140111396#7" to="140112584#4" departPos="random_free" departSpeed="max"/>
    <trip id="114" type="car_ind" depart="291.17" from="-1475456268#1" to="140111396#7" departPos="random_free" departSpeed="max"/>
    <trip id="115" type="car_ind" depart="291.21" from="140112587#1" to="140111417#3" departPos="random_free" departSpeed="max"/>
    <trip id="116" type="bus_ind" depart="293.60" from="140111417#2" to="-140112584#2" departPos="random_free" departSpeed="max"/>
    <trip id="117" type="bus_ind" depart="294.84" from="-140111406#0" to="-140112584#0" departPos="random_free" departSpeed="max"/>
    <trip id="118" type="motorcycle_ind" depart="297.14" from="-140112583#1" to="-140112579#2" departPos="random_free" departSpeed="max"/>
    <trip id="119" type="car_ind" depart="297.50" from="140111417#3" to="140111417#0" departPos="random_free" departSpeed="max"/>
    <trip id="120" type="motorcycle_ind" depart="297.91" from="140111406#2" to="-140112584#3" departPos="random_free" departSpeed="max"/>
    <trip id="121" type="motorcycle_ind" depart="300.62" from="-140112583#1" to="1475456268#0" departPos="random_free" departSpeed="max"/>
    <trip id="122" type="auto_ind" depart="301.38" from="140111415#0" to="-140112584#2" departPos="random_free" departSpeed="max"/>
    <trip id="123" type="auto_ind" depart="301.94" from="140112579#3" to="140111417#0" departPos="random_free" departSpeed="max"/>
    <trip id="124" type="bus_ind" depart="306.64" from="-140112584#4" to="140112579#3" departPos="random_free" departSpeed="max"/>
    <trip id="125" type="auto_ind" depart="307.90" from="140112584#4" to="1480562496" departPos="random_free" departSpeed="max"/>
    <trip id="126" type="car_ind" depart="310.92" from="-E3" to="-E4.171" departPos="random_free" departSpeed="max"/>
    <trip id="127" type="car_ind" depart="320.92" from="-140111415#0" to="-140112587#1" departPos="random_free" departSpeed="max"/>
    <trip id="128" type="car_ind" depart="325.88" from="-140111396#7" to="-140112584#4" departPos="random_free" departSpeed="max"/>
    <trip id="129" type="car_ind" depart="327.23" from="670380636#3" to="-670380636#1" departPos="random_free" departSpeed="max"/>
    <trip id="130" type="motorcycle_ind" depart="330.18" from="140111396#2" to="E1" departPos="random_free" departSpeed="max"/>
    <trip id="131" type="car_ind" depart="335.64" from="-140111396#0" to="140111396#2" departPos="random_free" departSpeed="max"/>
    <trip id="132" type="motorcycle_ind" depart="341.36" from="-140112582#1" to="-140111396#7" departPos="random_free" departSpeed="max"/>
    <trip id="133" type="car_ind" depart="342.30" from="-E1" to="-140112584#2" departPos="random_free" departSpeed="max"/>
    <trip id="134" type="motorcycle_ind" depart="342.59" from="-140112587#1" to="E7" departPos="random_free" departSpeed="max"/>
    <trip id="135" type="auto_ind" depart="344.31" from="140112583#1" to="-140112583#1" departPos="random_free" departSpeed="max"/>
    <trip id="136" type="bus_ind" depart="354.06" from="-140112579#3" to="-1475456268#3" departPos="random_free" departSpeed="max"/>
    <trip id="137" type="car_ind" depart="355.41" from="1475456268#0" to="140111396#2" departPos="random_free" departSpeed="max"/>
    <trip id="138" type="motorcycle_ind" depart="357.07" from="140112579#2" to="140112583#1" departPos="random_free" departSpeed="max"/>
    <trip id="139" type="car_ind" depart="369.81" from="140111417#3" to="140111396#2" departPos="random_free" departSpeed="max"/>
    <trip id="140" type="car_ind" depart="370.27" from="-140111417#0" to="140112579#2" departPos="random_free" departSpeed="max"/>
    <trip id="141" type="car_ind" depart="371.16" from="140112587#1" to="140111417#2" departPos="random_free" departSpeed="max"/>
    <trip id="142" type="auto_ind" depart="376.41" from="-140111396#8" to="1475456268#4" departPos="random_free" departSpeed="max"/>
    <trip id="143" type="motorcycle_ind" depart="378.60" from="-E1" to="140112584#3" departPos="random_free" departSpeed="max"/>
    <trip id="144" type="motorcycle_ind" depart="380.75" from="-E4" to="-140112582#1" departPos="random_free" departSpeed="max"/>
    <trip id="145" type="car_ind" depart="381.80" from="1475456268#1" to="-140111417#2" departPos="random_free" departSpeed="max"/>
    <trip id="146" type="motorcycle_ind" depart="382.92" from="-140112583#1" to="670380636#3" departPos="random_free" departSpeed="max"/>
    <trip id="147" type="motorcycle_ind" depart="384.94" from="140112583#2" to="670380636#1" departPos="random_free" departSpeed="max"/>
    <trip id="148" type="motorcycle_ind" depart="385.24" from="140111396#6" to="E0" departPos="random_free" departSpeed="max"/>
    <trip id="149" type="motorcycle_ind" depart="390.28" from="140112587#2" to="E5" departPos="random_free" departSpeed="max"/>
    <trip id="150" type="bus_ind" depart="390.45" from="-140111406#2" to="140112584#5" departPos="random_free" departSpeed="max"/>
    <trip id="151" type="motorcycle_ind" depart="391.12" from="-140111406#0" to="140111396#7" departPos="random_free" departSpeed="max"/>
    <trip id="152" type="auto_ind" depart="391.34" from="1475456268#1" to="140112584#2" departPos="random_free" departSpeed="max"/>
    <trip id="153" type="car_ind" depart="391.50" from="-140111406#1" to="E4" departPos="random_free" departSpeed="max"/>
    <trip id="154" type="motorcycle_ind" depart="398.54" from="-1480562496" to="-140111415#1" departPos="random_free" departSpeed="max"/>
    <trip id="155" type="car_ind" depart="399.44" from="-140111406#0" to="-140111396#4" departPos="random_free" departSpeed="max"/>
    <trip id="156" type="motorcycle_ind" depart="404.29" from="-E8" to="140112587#1" departPos="random_free" departSpeed="max"/>
    <trip id="157" type="bus_ind" depart="404.51" from="-E0" to="140111396#7" departPos="random_free" departSpeed="max"/>
    <trip id="158" type="motorcycle_ind" depart="405.53" from="140111396#4" to="-140112584#4" departPos="random_free" departSpeed="max"/>
    <trip id="159" type="motorcycle_ind" depart="405.64" from="140112579#3" to="-140111396#7" departPos="random_free" departSpeed="max"/>
    <trip id="160" type="auto_ind" depart="407.12" from="-1480562496" to="E0" departPos="random_free" departSpeed="max"/>
    <trip id="161" type="auto_ind" depart="409.95" from="-1475456268#0" to="140112584#0" departPos="random_free" departSpeed="max"/>
    <trip id="162" type="motorcycle_ind" depart="410.80" from="-140111417#0" to="-140112584#0" departPos="random_free" departSpeed="max"/>
    <trip id="163" type="motorcycle_ind" depart="412.51" from="-140111396#6" to="140112584#2" departPos="random_free" departSpeed="max"/>
    <trip id="164" type="car_ind" depart="413.86" from="-E3" to="-140111396#8" departPos="random_free" departSpeed="max"/>
    <trip id="165" type="motorcycle_ind" depart="416.29" from="-140111396#0" to="140112583#1" departPos="random_free" departSpeed="max"/>
    <trip id="166" type="bus_ind" depart="416.84" from="-140111396#4" to="140112587#2" departPos="random_free" departSpeed="max"/>
    <trip id="167" type="motorcycle_ind" depart="419.06" from="-140112582#1" to="140111406#2" departPos="random_free" departSpeed="max"/>
    <trip id="168" type="car_ind" depart="420.33" from="140111406#2" to="E5" departPos="random_free" departSpeed="max"/>
    <trip id="169" type="motorcycle_ind" depart="422.76" from="-140112579#3" to="140112579#3" departPos="random_free" departSpeed="max"/>
    <trip id="170" type="motorcycle_ind" depart="425.57" from="1475456268#3" to="140111406#1" departPos="random_free" departSpeed="max"/>
    <trip id="171" type="car_ind" depart="431.90" from="140111396#4" to="-140112583#1" departPos="random_free" departSpeed="max"/>
    <trip id="172" type="auto_ind" depart="431.94" from="140112579#2" to="140111396#6" departPos="random_free" departSpeed="max"/>
    <trip id="173" type="bus_ind" depart="436.91" from="-140112583#2" to="140111396#4" departPos="random_free" departSpeed="max"/>
    <trip id="174" type="motorcycle_ind" depart="439.17" from="-140111396#2" to="140111417#2" departPos="random_free" departSpeed="max"/>
    <trip id="175" type="motorcycle_ind" depart="444.08" from="140112584#0" to="E4.186" departPos="random_free" departSpeed="max"/>
    <trip id="176" type="motorcycle_ind" depart="448.22" from="140111396#6" to="1475456268#0" departPos="random_free" departSpeed="max"/>
    <trip id="177" type="motorcycle_ind" depart="453.86" from="-140111396#7" to="140111406#1" departPos="random_free" departSpeed="max"/>
    <trip id="178" type="motorcycle_ind" depart="455.57" from="140111406#2" to="140111396#2" departPos="random_free" departSpeed="max"/>
    <trip id="179" type="motorcycle_ind" depart="456.39" from="-140111396#2" to="140111406#0" departPos="random_free" departSpeed="max"/>
    <trip id="180" type="motorcycle_ind" depart="457.29" from="140111396#2" to="-140111396#8" departPos="random_free" departSpeed="max"/>
    <trip id="181" type="bus_ind" depart="460.07" from="-140111417#2" to="140111396#8" departPos="random_free" departSpeed="max"/>
    <trip id="182" type="car_ind" depart="462.63" from="-140111406#2" to="140112584#3" departPos="random_free" departSpeed="max"/>
    <trip id="183" type="auto_ind" depart="470.09" from="140111406#2" to="-1475456268#0" departPos="random_free" departSpeed="max"/>
    <trip id="184" type="auto_ind" depart="470.26" from="1475456268#0" to="E4" departPos="random_free" departSpeed="max"/>
    <trip id="185" type="car_ind" depart="474.42" from="-670380636#1" to="-1480562496" departPos="random_free" departSpeed="max"/>
    <trip id="186" type="car_ind" depart="474.84" from="140112579#2" to="140111417#3" departPos="random_free" departSpeed="max"/>
    <trip id="187" type="car_ind" depart="474.97" from="E3" to="140112582#1" departPos="random_free" departSpeed="max"/>
    <trip id="188" type="motorcycle_ind" depart="479.03" from="-140111396#7" to="140111396#2" departPos="random_free" departSpeed="max"/>
    <trip id="189" type="auto_ind" depart="482.93" from="140112584#5" to="-140112584#3" departPos="random_free" departSpeed="max"/>
    <trip id="190" type="auto_ind" depart="483.15" from="140111396#4" to="-670380636#1" departPos="random_free" departSpeed="max"/>
    <trip id="191" type="motorcycle_ind" depart="484.55" from="-140111396#4" to="-140112584#3" departPos="random_free" departSpeed="max"/>
    <trip id="192" type="motorcycle_ind" depart="488.50" from="140111396#0" to="-140111396#2" departPos="random_free" departSpeed="max"/>
    <trip id="193" type="car_ind" depart="492.26" from="1475456268#0" to="-1480562496" departPos="random_free" departSpeed="max"/>
    <trip id="194" type="motorcycle_ind" depart="501.23" from="140112584#5" to="-140111417#0" departPos="random_free" departSpeed="max"/>
    <trip id="195" type="auto_ind" depart="506.12" from="670380636#3" to="-140112587#1" departPos="random_free" departSpeed="max"/>
    <trip id="196" type="bus_ind" depart="507.08" from="140111417#0" to="-140112582#1" departPos="random_free" departSpeed="max"/>
    <trip id="197" type="motorcycle_ind" depart="507.95" from="-140111417#2" to="-E4" departPos="random_free" departSpeed="max"/>
    <trip id="198" type="auto_ind" depart="508.07" from="-E1" to="140111396#7" departPos="random_free" departSpeed="max"/>
    <trip id="199" type="car_ind" depart="509.50" from="-140111417#0" to="670380636#1" departPos="random_free" departSpeed="max"/>
    <trip id="200" type="motorcycle_ind" depart="510.40" from="-E3" to="-140112587#2" departPos="random_free" departSpeed="max"/>
    <trip id="201" type="motorcycle_ind" depart="510.75" from="-1475456268#4" to="-140111415#1" departPos="random_free" departSpeed="max"/>
    <trip id="202" type="car_ind" depart="513.20" from="-140111417#2" to="-1475456268#1" departPos="random_free" departSpeed="max"/>
    <trip id="203" type="motorcycle_ind" depart="517.27" from="-140112584#0" to="1475456268#1" departPos="random_free" departSpeed="max"/>
    <trip id="204" type="motorcycle_ind" depart="518.34" from="-140111396#7" to="140112587#2" departPos="random_free" departSpeed="max"/>
    <trip id="205" type="motorcycle_ind" depart="520.35" from="1475456268#1" to="140112579#2" departPos="random_free" departSpeed="max"/>
    <trip id="206" type="motorcycle_ind" depart="522.11" from="140111415#0" to="-140112584#5" departPos="random_free" departSpeed="max"/>
    <trip id="207" type="car_ind" depart="522.53" from="140111396#7" to="E5" departPos="random_free" departSpeed="max"/>
    <trip id="208" type="car_ind" depart="523.68" from="-140112582#1" to="-140112584#3" departPos="random_free" departSpeed="max"/>
    <trip id="209" type="motorcycle_ind" depart="527.86" from="140112582#1" to="-140111406#0" departPos="random_free" departSpeed="max"/>
    <trip id="210" type="car_ind" depart="528.04" from="140112587#1" to="140112583#1" departPos="random_free" departSpeed="max"/>
    <trip id="211" type="motorcycle_ind" depart="528.39" from="-140111396#2" to="1475456268#0" departPos="random_free" departSpeed="max"/>
    <trip id="212" type="motorcycle_ind" depart="528.70" from="-140111417#2" to="140112587#2" departPos="random_free" departSpeed="max"/>
    <trip id="213" type="auto_ind" depart="536.45" from="-140112587#2" to="-140111417#0" departPos="random_free" departSpeed="max"/>
    <trip id="214" type="motorcycle_ind" depart="536.63" from="140111396#8" to="-140112579#2" departPos="random_free" departSpeed="max"/>
    <trip id="215" type="auto_ind" depart="538.04" from="670380636#3" to="140111396#2" departPos="random_free" departSpeed="max"/>
    <trip id="216" type="motorcycle_ind" depart="539.45" from="-140111417#3" to="140111396#0" departPos="random_free" departSpeed="max"/>
    <trip id="217" type="auto_ind" depart="542.14" from="1475456268#3" to="140112584#2" departPos="random_free" departSpeed="max"/>
    <trip id="218" type="car_ind" depart="545.14" from="-E1" to="E8" departPos="random_free" departSpeed="max"/>
    <trip id="219" type="motorcycle_ind" depart="546.73" from="-670380636#3" to="-140112584#3" departPos="random_free" departSpeed="max"/>
    <trip id="220" type="car_ind" depart="546.99" from="-E0" to="-140112587#2" departPos="random_free" departSpeed="max"/>
    <trip id="221" type="motorcycle_ind" depart="548.04" from="-E7" to="1475456268#3" departPos="random_free" departSpeed="max"/>