<?xml version="1.0" encoding="UTF-8"?>

<!-- generated on 2026-03-25T00:21:48.233172+05:30 by Eclipse SUMO netedit 1.26.0
<neteditConfiguration xmlns:xsi="http://www.w3.org/2001/XMLSchema-instance" xsi:noNamespaceSchemaLocation="http://sumo.dlr.de/xsd/neteditConfiguration.xsd">

    <input>
        <sumo-net-file value="patna_stc.net.xml"/>
    </input>

    <output>
        <output-file value="patna_stc.net.xml"/>
    </output>

    <processing>
        <geometry.min-radius.fix.railways value="false"/>
        <geometry.avoid-overlap value="false"/>
        <geometry.max-grade.fix value="false"/>
        <offset.disable-normalization value="true"/>
        <lefthand value="0"/>
    </processing>

    <junctions>
        <no-turnarounds value="true"/>
        <junctions.corner-detail value="5"/>
        <junctions.limit-turn-speed value="5.50"/>
        <rectangular-lane-cut value="0"/>
    </junctions>

    <pedestrian>
        <walkingareas value="0"/>
    </pedestrian>

</neteditConfiguration>
-->

<net version="1.20" junctionCornerDetail="5" limitTurnSpeed="5.50" avoidOverlap="0" xmlns:xsi="http://www.w3.org/2001/XMLSchema-instance" xsi:noNamespaceSchemaLocation="http://sumo.dlr.de/xsd/net_file.xsd">

    <location netOffset="-309712.93,-2835889.72" convBoundary="-207.03,-200.86,794.15,605.95" origBoundary="85.104734,25.628437,85.114913,25.633595" projParameter="+proj=utm +zone=45 +ellps=WGS84 +datum=WGS84 +units=m +no_defs"/>

    <type id="highway.residential" priority="3" numLanes="1" speed="13.89" disallow="tram rail_urban rail rail_electric rail_fast ship container cable_car subway aircraft wheelchair scooter drone" oneway="0"/>
    <type id="highway.service" priority="1" numLanes="1" speed="5.56" allow="pedestrian delivery bicycle" oneway="0"/>

    <edge id=":11353425042_0" function="internal">
        <lane id=":11353425042_0_0" index="0" allow="pedestrian delivery bicycle" speed="3.65" length="4.67" shape="343.43,605.04 343.45,606.48 343.02,607.27 342.13,607.39 340.79,606.86"/>
    </edge>
    <edge id=":13535838078_0" function="internal">
        <lane id=":13535838078_0_0" index="0" disallow="tram rail_urban rail rail_electric rail_fast ship container cable_car subway aircraft wheelchair scooter drone" speed="8.73" length="9.99" shape="-32.38,55.17 -33.83,52.71 -35.54,50.89 -37.53,49.70 -39.78,49.14"/>
    </edge>
    <edge id=":13535838078_1" function="internal">
        <lane id=":13535838078_1_0" index="0" disallow="tram rail_urban rail rail_electric rail_fast ship container cable_car subway aircraft wheelchair scooter drone" speed="8.01" length="13.94" shape="-32.38,55.17 -33.51,51.53 -33.22,48.38 -31.51,45.72 -28.38,43.54"/>
    </edge>
    <edge id=":13535838078_2" function="internal">
        <lane id=":13535838078_2_0" index="0" disallow="tram rail_urban rail rail_electric rail_fast ship container cable_car subway aircraft wheelchair scooter drone" speed="3.65" length="4.67" shape="-32.38,55.17 -32.17,53.74 -31.62,53.04 -30.73,53.05 -29.49,53.80"/>
    </edge>
    <edge id=":13535838078_3" function="internal">
        <lane id=":13535838078_3_0" index="0" disallow="tram rail_urban rail rail_electric rail_fast ship container cable_car subway aircraft wheelchair scooter drone" speed="6.51" length="8.87" shape="-26.94,46.40 -28.93,47.78 -30.02,49.48 -30.21,51.48 -29.49,53.80"/>
    </edge>
    <edge id=":13535838078_4" function="internal">
        <lane id=":13535838078_4_0" index="0" disallow="tram rail_urban rail rail_electric rail_fast ship container cable_car subway aircraft wheelchair scooter drone" speed="13.89" length="13.33" shape="-26.94,46.40 -30.14,47.85 -33.17,48.80 -36.31,49.24 -39.78,49.14"/>
    </edge>
    <edge id=":13535838078_5" function="internal">
        <lane id=":13535838078_5_0" index="0" disallow="tram rail_urban rail rail_electric rail_fast ship container cable_car subway aircraft wheelchair scooter drone" speed="13.89" length="11.56" shape="-39.46,45.96 -36.26,46.11 -33.73,45.78 -31.30,44.94 -28.38,43.54"/>
    </edge>
    <edge id=":13535838078_6" function="internal">
        <lane id=":13535838078_6_0" index="0" disallow="tram rail_urban rail rail_electric rail_fast ship container cable_car subway aircraft wheelchair scooter drone" speed="9.99" length="3.18" shape="-39.46,45.96 -36.37,46.70"/>
    </edge>
    <edge id=":13535838078_7" function="internal">
        <lane id=":13535838078_7_0" index="0" disallow="tram rail_urban rail rail_electric rail_fast ship container cable_car subway aircraft wheelchair scooter drone" speed="9.99" length="10.10" shape="-36.37,46.70 -33.68,48.25 -31.38,50.62 -29.49,53.80"/>
    </edge>
    <edge id=":13579686751_0" function="internal">
        <lane id=":13579686751_0_0" index="0" disallow="tram rail_urban rail rail_electric rail_fast ship container cable_car subway aircraft wheelchair scooter drone" speed="6.35" length="9.04" shape="249.43,450.83 247.96,448.81 246.22,447.79 244.20,447.80 241.91,448.82"/>
    </edge>
    <edge id=":13579686751_1" function="internal">
        <lane id=":13579686751_1_0" index="0" disallow="tram rail_urban rail rail_electric rail_fast ship container cable_car subway aircraft wheelchair scooter drone" speed="8.51" length="14.22" shape="249.43,450.83 248.04,447.12 247.96,443.77 249.21,440.78 251.78,438.17"/>
    </edge>
    <edge id=":13579686751_2" function="internal">
        <lane id=":13579686751_2_0" index="0" disallow="tram rail_urban rail rail_electric rail_fast ship container cable_car subway aircraft wheelchair scooter drone" speed="3.65" length="4.67" shape="249.43,450.83 249.58,449.40 250.10,448.67 250.99,448.65 252.26,449.34"/>
    </edge>
    <edge id=":13579686751_3" function="internal">
        <lane id=":13579686751_3_0" index="0" disallow="tram rail_urban rail rail_electric rail_fast ship container cable_car subway aircraft wheelchair scooter drone" speed="7.11" length="9.64" shape="253.70,440.72 252.01,442.47 251.20,444.49 251.29,446.78 252.26,449.34"/>
    </edge>
    <edge id=":13579686751_4" function="internal">
        <lane id=":13579686751_4_0" index="0" disallow="tram rail_urban rail rail_electric rail_fast ship container cable_car subway aircraft wheelchair scooter drone" speed="13.89" length="14.30" shape="253.70,440.72 241.91,448.82"/>
    </edge>
    <edge id=":13579686751_5" function="internal">
        <lane id=":13579686751_5_0" index="0" disallow="tram rail_urban rail rail_electric rail_fast ship container cable_car subway aircraft wheelchair scooter drone" speed="3.65" length="1.44" shape="253.70,440.72 252.26,440.81"/>
    </edge>
    <edge id=":13579686751_9" function="internal">
        <lane id=":13579686751_9_0" index="0" disallow="tram rail_urban rail rail_electric rail_fast ship container cable_car subway aircraft wheelchair scooter drone" speed="3.65" length="3.23" shape="252.26,440.81 251.46,440.41 251.30,439.53 251.78,438.17"/>
    </edge>
    <edge id=":13579686751_6" function="internal">
        <lane id=":13579686751_6_0" index="0" disallow="tram rail_urban rail rail_electric rail_fast ship container cable_car subway aircraft wheelchair scooter drone" speed="13.89" length="14.03" shape="240.21,446.11 251.78,438.17"/>
    </edge>
    <edge id=":13579686751_7" function="internal">
        <lane id=":13579686751_7_0" index="0" disallow="tram rail_urban rail rail_electric rail_fast ship container cable_car subway aircraft wheelchair scooter drone" speed="7.87" length="3.86" shape="240.21,446.11 243.73,444.54"/>
    </edge>
    <edge id=":13579686751_8" function="internal">
        <lane id=":13579686751_8_0" index="0" disallow="tram rail_urban rail rail_electric rail_fast ship container cable_car subway aircraft wheelchair scooter drone" speed="3.65" length="1.44" shape="240.21,446.11 241.65,446.15"/>
    </edge>
    <edge id=":13579686751_10" function="internal">
        <lane id=":13579686751_10_0" index="0" disallow="tram rail_urban rail rail_electric rail_fast ship container cable_car subway aircraft wheelchair scooter drone" speed="7.87" length="10.64" shape="243.73,444.54 243.88,444.48 247.11,444.47 249.90,446.09 252.26,449.34"/>
    </edge>
    <edge id=":13579686751_11" function="internal">
        <lane id=":13579686751_11_0" index="0" disallow="tram rail_urban rail rail_electric rail_fast ship container cable_car subway aircraft wheelchair scooter drone" speed="3.65" length="3.23" shape="241.65,446.15 242.41,446.61 242.50,447.50 241.91,448.82"/>
    </edge>
    <edge id=":1535132322_0" function="internal">
        <lane id=":1535132322_0_0" index="0" disallow="tram rail_urban rail rail_electric rail_fast ship container cable_car subway aircraft wheelchair scooter drone" speed="3.65" length="4.67" shape="793.17,200.25 794.61,200.15 795.42,200.54 795.59,201.42 795.13,202.79"/>
    </edge>
    <edge id=":1535132354_0" function="internal">
        <lane id=":1535132354_0_0" index="0" disallow="tram rail_urban rail rail_electric rail_fast ship container cable_car subway aircraft wheelchair scooter drone" speed="7.44" length="10.93" shape="427.30,171.61 425.86,169.21 423.88,167.75 421.35,167.22 418.29,167.63"/>
    </edge>
    <edge id=":1535132354_1" function="internal">
        <lane id=":1535132354_1_0" index="0" disallow="tram rail_urban rail rail_electric rail_fast ship container cable_car subway aircraft wheelchair scooter drone" speed="13.89" length="15.61" shape="427.30,171.61 425.76,168.09 424.02,164.53 422.15,161.04 420.23,157.71"/>
    </edge>
    <edge id=":1535132354_2" function="internal">
        <lane id=":1535132354_2_0" index="0" disallow="tram rail_urban rail rail_electric rail_fast ship container cable_car subway aircraft wheelchair scooter drone" speed="7.92" length="14.61" shape="427.30,171.61 426.36,167.75 426.96,164.58 429.11,162.08 432.80,160.26"/>
    </edge>
    <edge id=":1535132354_3" function="internal">
        <lane id=":1535132354_3_0" index="0" disallow="tram rail_urban rail rail_electric rail_fast ship container cable_car subway aircraft wheelchair scooter drone" speed="3.65" length="1.44" shape="427.30,171.61 427.58,170.19"/>
    </edge>
    <edge id=":1535132354_16" function="internal">
        <lane id=":1535132354_16_0" index="0" disallow="tram rail_urban rail rail_electric rail_fast ship container cable_car subway aircraft wheelchair scooter drone" speed="3.65" length="3.23" shape="427.58,170.19 428.17,169.52 429.07,169.59 430.26,170.40"/>
    </edge>
    <edge id=":1535132354_4" function="internal">
        <lane id=":1535132354_4_0" index="0" disallow="tram rail_urban rail rail_electric rail_fast ship container cable_car subway aircraft wheelchair scooter drone" speed="6.37" length="9.05" shape="433.64,163.36 431.36,164.48 430.04,166.03 429.67,168.00 430.26,170.40"/>
    </edge>
    <edge id=":1535132354_5" function="internal">
        <lane id=":1535132354_5_0" index="0" disallow="tram rail_urban rail rail_electric rail_fast ship container cable_car subway aircraft wheelchair scooter drone" speed="13.89" length="15.93" shape="433.64,163.36 418.29,167.63"/>
    </edge>
    <edge id=":1535132354_6" function="internal">
        <lane id=":1535132354_6_0" index="0" disallow="tram rail_urban rail rail_electric rail_fast ship container cable_car subway aircraft wheelchair scooter drone" speed="9.05" length="15.38" shape="433.64,163.36 430.12,163.65 426.29,162.61 422.78,160.54 420.23,157.71"/>
    </edge>
    <edge id=":1535132354_7" function="internal">
        <lane id=":1535132354_7_0" index="0" disallow="tram rail_urban rail rail_electric rail_fast ship container cable_car subway aircraft wheelchair scooter drone" speed="3.65" length="1.44" shape="433.64,163.36 432.27,162.90"/>
    </edge>
    <edge id=":1535132354_17" function="internal">
        <lane id=":1535132354_17_0" index="0" disallow="tram rail_urban rail rail_electric rail_fast ship container cable_car subway aircraft wheelchair scooter drone" speed="3.65" length="3.24" shape="432.27,162.90 431.67,162.23 431.85,161.35 432.80,160.26"/>
    </edge>
    <edge id=":1535132354_8" function="internal">
        <lane id=":1535132354_8_0" index="0" disallow="tram rail_urban rail rail_electric rail_fast ship container cable_car subway aircraft wheelchair scooter drone" speed="7.97" length="11.73" shape="422.94,156.04 424.95,158.65 427.27,160.22 429.89,160.76 432.80,160.26"/>
    </edge>
    <edge id=":1535132354_9" function="internal">
        <lane id=":1535132354_9_0" index="0" disallow="tram rail_urban rail rail_electric rail_fast ship container cable_car subway aircraft wheelchair scooter drone" speed="13.89" length="16.13" shape="422.94,156.04 424.90,159.44 426.85,163.09 428.68,166.81 430.26,170.40"/>
    </edge>
    <edge id=":1535132354_10" function="internal">
        <lane id=":1535132354_10_0" index="0" disallow="tram rail_urban rail rail_electric rail_fast ship container cable_car subway aircraft wheelchair scooter drone" speed="7.60" length="15.40" shape="422.94,156.04 424.65,160.12 424.45,163.42 422.32,165.92 418.29,167.63"/>
    </edge>
    <edge id=":1535132354_11" function="internal">
        <lane id=":1535132354_11_0" index="0" disallow="tram rail_urban rail rail_electric rail_fast ship container cable_car subway aircraft wheelchair scooter drone" speed="3.64" length="1.43" shape="422.94,156.04 422.89,157.47"/>
    </edge>
    <edge id=":1535132354_18" function="internal">
        <lane id=":1535132354_18_0" index="0" disallow="tram rail_urban rail rail_electric rail_fast ship container cable_car subway aircraft wheelchair scooter drone" speed="3.64" length="3.21" shape="422.89,157.47 422.42,158.23 421.53,158.31 420.23,157.71"/>
    </edge>
    <edge id=":1535132354_12" function="internal">
        <lane id=":1535132354_12_0" index="0" disallow="tram rail_urban rail rail_electric rail_fast ship container cable_car subway aircraft wheelchair scooter drone" speed="5.99" length="9.08" shape="417.47,164.54 419.86,163.53 421.11,162.05 421.24,160.11 420.23,157.71"/>
    </edge>
    <edge id=":1535132354_13" function="internal">
        <lane id=":1535132354_13_0" index="0" disallow="tram rail_urban rail rail_electric rail_fast ship container cable_car subway aircraft wheelchair scooter drone" speed="13.89" length="15.92" shape="417.47,164.54 432.80,160.26"/>
    </edge>
    <edge id=":1535132354_14" function="internal">
        <lane id=":1535132354_14_0" index="0" disallow="tram rail_urban rail rail_electric rail_fast ship container cable_car subway aircraft wheelchair scooter drone" speed="8.62" length="15.01" shape="417.47,164.54 421.14,164.36 424.93,165.46 428.18,167.56 430.26,170.40"/>
    </edge>
    <edge id=":1535132354_15" function="internal">
        <lane id=":1535132354_15_0" index="0" disallow="tram rail_urban rail rail_electric rail_fast ship container cable_car subway aircraft wheelchair scooter drone" speed="3.65" length="1.44" shape="417.47,164.54 418.84,165.01"/>
    </edge>
    <edge id=":1535132354_19" function="internal">
        <lane id=":1535132354_19_0" index="0" disallow="tram rail_urban rail rail_electric rail_fast ship container cable_car subway aircraft wheelchair scooter drone" speed="3.65" length="3.23" shape="418.84,165.01 419.43,165.68 419.24,166.55 418.29,167.63"/>
    </edge>
    <edge id=":1535132359_0" function="internal">
        <lane id=":1535132359_0_0" index="0" disallow="tram rail_urban rail rail_electric rail_fast ship container cable_car subway aircraft wheelchair scooter drone" speed="6.52" length="8.41" shape="615.94,212.82 614.41,211.13 612.69,210.28 610.76,210.25 608.63,211.06"/>
    </edge>
    <edge id=":1535132359_1" function="internal">
        <lane id=":1535132359_1_0" index="0" disallow="tram rail_urban rail rail_electric rail_fast ship container cable_car subway aircraft wheelchair scooter drone" speed="13.89" length="13.12" shape="615.94,212.82 614.08,209.91 612.62,207.17 611.43,204.30 610.40,201.01"/>
    </edge>
    <edge id=":1535132359_2" function="internal">
        <lane id=":1535132359_2_0" index="0" disallow="tram rail_urban rail rail_electric rail_fast ship container cable_car subway aircraft wheelchair scooter drone" speed="3.65" length="1.44" shape="615.94,212.82 615.93,211.38"/>
    </edge>
    <edge id=":1535132359_9" function="internal">
        <lane id=":1535132359_9_0" index="0" disallow="tram rail_urban rail rail_electric rail_fast ship container cable_car subway aircraft wheelchair scooter drone" speed="3.65" length="3.23" shape="615.93,211.38 616.37,210.60 617.25,210.48 618.59,211.02"/>
    </edge>
    <edge id=":1535132359_3" function="internal">
        <lane id=":1535132359_3_0" index="0" disallow="tram rail_urban rail rail_electric rail_fast ship container cable_car subway aircraft wheelchair scooter drone" speed="13.89" length="12.08" shape="613.48,200.15 614.45,203.30 615.48,205.84 616.79,208.25 618.59,211.02"/>
    </edge>
    <edge id=":1535132359_4" function="internal">
        <lane id=":1535132359_4_0" index="0" disallow="tram rail_urban rail rail_electric rail_fast ship container cable_car subway aircraft wheelchair scooter drone" speed="8.42" length="13.03" shape="613.48,200.15 613.92,203.52 613.26,206.46 611.50,208.97 608.63,211.06"/>
    </edge>
    <edge id=":1535132359_5" function="internal">
        <lane id=":1535132359_5_0" index="0" disallow="tram rail_urban rail rail_electric rail_fast ship container cable_car subway aircraft wheelchair scooter drone" speed="3.65" length="1.44" shape="613.48,200.15 613.03,201.52"/>
    </edge>
    <edge id=":1535132359_10" function="internal">
        <lane id=":1535132359_10_0" index="0" disallow="tram rail_urban rail rail_electric rail_fast ship container cable_car subway aircraft wheelchair scooter drone" speed="3.65" length="3.23" shape="613.03,201.52 612.37,202.12 611.49,201.95 610.40,201.01"/>
    </edge>
    <edge id=":1535132359_6" function="internal">
        <lane id=":1535132359_6_0" index="0" disallow="tram rail_urban rail rail_electric rail_fast ship container cable_car subway aircraft wheelchair scooter drone" speed="6.98" length="8.69" shape="607.09,208.25 609.03,206.85 610.23,205.18 610.68,203.23 610.40,201.01"/>
    </edge>
    <edge id=":1535132359_7" function="internal">
        <lane id=":1535132359_7_0" index="0" disallow="tram rail_urban rail rail_electric rail_fast ship container cable_car subway aircraft wheelchair scooter drone" speed="8.02" length="13.21" shape="607.09,208.25 610.44,206.99 613.47,207.03 616.19,208.37 618.59,211.02"/>
    </edge>
    <edge id=":1535132359_8" function="internal">
        <lane id=":1535132359_8_0" index="0" disallow="tram rail_urban rail rail_electric rail_fast ship container cable_car subway aircraft wheelchair scooter drone" speed="3.65" length="1.31" shape="607.09,208.25 608.40,208.37"/>
    </edge>
    <edge id=":1535132359_11" function="internal">
        <lane id=":1535132359_11_0" index="0" disallow="tram rail_urban rail rail_electric rail_fast ship container cable_car subway aircraft wheelchair scooter drone" speed="3.65" length="3.36" shape="608.40,208.37 608.53,208.38 609.26,208.89 609.30,209.78 608.63,211.06"/>
    </edge>
    <edge id=":1535132370_0" function="internal">
        <lane id=":1535132370_0_0" index="0" disallow="tram rail_urban rail rail_electric rail_fast ship container cable_car subway aircraft wheelchair scooter drone" speed="13.89" length="13.74" shape="680.47,291.42 677.69,293.63 675.16,295.78 672.72,298.03 670.21,300.54"/>
    </edge>
    <edge id=":1535132370_1" function="internal">
        <lane id=":1535132370_1_0" index="0" disallow="tram rail_urban rail rail_electric rail_fast ship container cable_car subway aircraft wheelchair scooter drone" speed="7.90" length="3.99" shape="680.47,291.42 677.00,293.39"/>
    </edge>
    <edge id=":1535132370_2" function="internal">
        <lane id=":1535132370_2_0" index="0" disallow="tram rail_urban rail rail_electric rail_fast ship container cable_car subway aircraft wheelchair scooter drone" speed="3.65" length="1.44" shape="680.47,291.42 679.03,291.52"/>
    </edge>
    <edge id=":1535132370_9" function="internal">
        <lane id=":1535132370_9_0" index="0" disallow="tram rail_urban rail rail_electric rail_fast ship container cable_car subway aircraft wheelchair scooter drone" speed="7.90" length="10.44" shape="677.00,293.39 673.79,293.71 670.84,292.41 668.15,289.47"/>
    </edge>
    <edge id=":1535132370_10" function="internal">
        <lane id=":1535132370_10_0" index="0" disallow="tram rail_urban rail rail_electric rail_fast ship container cable_car subway aircraft wheelchair scooter drone" speed="3.65" length="3.23" shape="679.03,291.52 678.23,291.13 678.05,290.26 678.51,288.89"/>
    </edge>
    <edge id=":1535132370_3" function="internal">
        <lane id=":1535132370_3_0" index="0" disallow="tram rail_urban rail rail_electric rail_fast ship container cable_car subway aircraft wheelchair scooter drone" speed="6.38" length="9.04" shape="670.80,287.66 672.48,289.51 674.33,290.33 676.34,290.12 678.51,288.89"/>
    </edge>
    <edge id=":1535132370_4" function="internal">
        <lane id=":1535132370_4_0" index="0" disallow="tram rail_urban rail rail_electric rail_fast ship container cable_car subway aircraft wheelchair scooter drone" speed="8.65" length="14.12" shape="670.80,287.66 672.60,291.17 673.10,294.48 672.30,297.60 670.21,300.54"/>
    </edge>
    <edge id=":1535132370_5" function="internal">
        <lane id=":1535132370_5_0" index="0" disallow="tram rail_urban rail rail_electric rail_fast ship container cable_car subway aircraft wheelchair scooter drone" speed="3.65" length="4.67" shape="670.80,287.66 670.81,289.11 670.38,289.89 669.49,290.01 668.15,289.47"/>
    </edge>
    <edge id=":1535132370_6" function="internal">
        <lane id=":1535132370_6_0" index="0" disallow="tram rail_urban rail rail_electric rail_fast ship container cable_car subway aircraft wheelchair scooter drone" speed="7.26" length="9.70" shape="667.91,298.32 669.30,296.34 669.81,294.20 669.42,291.91 668.15,289.47"/>
    </edge>
    <edge id=":1535132370_7" function="internal">
        <lane id=":1535132370_7_0" index="0" disallow="tram rail_urban rail rail_electric rail_fast ship container cable_car subway aircraft wheelchair scooter drone" speed="13.89" length="14.21" shape="667.91,298.32 670.47,295.76 673.03,293.40 675.68,291.15 678.51,288.89"/>
    </edge>
    <edge id=":1535132370_8" function="internal">
        <lane id=":1535132370_8_0" index="0" disallow="tram rail_urban rail rail_electric rail_fast ship container cable_car subway aircraft wheelchair scooter drone" speed="3.65" length="1.44" shape="667.91,298.32 669.32,298.01"/>
    </edge>
    <edge id=":1535132370_11" function="internal">
        <lane id=":1535132370_11_0" index="0" disallow="tram rail_urban rail rail_electric rail_fast ship container cable_car subway aircraft wheelchair scooter drone" speed="3.65" length="3.23" shape="669.32,298.01 670.17,298.28 670.47,299.12 670.21,300.54"/>
    </edge>
    <edge id=":1535132387_0" function="internal">
        <lane id=":1535132387_0_0" index="0" disallow="tram rail_urban rail rail_electric rail_fast ship container cable_car subway aircraft wheelchair scooter drone" speed="3.65" length="4.67" shape="167.17,579.00 165.73,578.88 164.99,578.38 164.95,577.49 165.61,576.20"/>
    </edge>
    <edge id=":1535132397_0" function="internal">
        <lane id=":1535132397_0_0" index="0" disallow="tram rail_urban rail rail_electric rail_fast ship container cable_car subway aircraft wheelchair scooter drone" speed="13.89" length="14.18" shape="439.87,480.68 427.32,487.29"/>
    </edge>
    <edge id=":1535132397_1" function="internal">
        <lane id=":1535132397_1_0" index="0" disallow="tram rail_urban rail rail_electric rail_fast ship container cable_car subway aircraft wheelchair scooter drone" speed="7.94" length="3.95" shape="439.87,480.68 436.12,481.92"/>
    </edge>
    <edge id=":1535132397_2" function="internal">
        <lane id=":1535132397_2_0" index="0" disallow="tram rail_urban rail rail_electric rail_fast ship container cable_car subway aircraft wheelchair scooter drone" speed="3.65" length="1.44" shape="439.87,480.68 438.44,480.50"/>
    </edge>
    <edge id=":1535132397_9" function="internal">
        <lane id=":1535132397_9_0" index="0" disallow="tram rail_urban rail rail_electric rail_fast ship container cable_car subway aircraft wheelchair scooter drone" speed="7.94" length="10.38" shape="436.12,481.92 432.92,481.64 430.25,479.84 428.12,476.52"/>
    </edge>
    <edge id=":1535132397_10" function="internal">
        <lane id=":1535132397_10_0" index="0" disallow="tram rail_urban rail rail_electric rail_fast ship container cable_car subway aircraft wheelchair scooter drone" speed="3.65" length="3.23" shape="438.44,480.50 437.72,479.96 437.72,479.07 438.44,477.81"/>
    </edge>
    <edge id=":1535132397_3" function="internal">
        <lane id=":1535132397_3_0" index="0" disallow="tram rail_urban rail rail_electric rail_fast ship container cable_car subway aircraft wheelchair scooter drone" speed="6.43" length="9.03" shape="431.03,475.19 432.38,477.29 434.06,478.42 436.08,478.60 438.44,477.81"/>
    </edge>
    <edge id=":1535132397_4" function="internal">
        <lane id=":1535132397_4_0" index="0" disallow="tram rail_urban rail rail_electric rail_fast ship container cable_car subway aircraft wheelchair scooter drone" speed="8.24" length="14.19" shape="431.03,475.19 432.17,478.95 431.93,482.22 430.31,485.00 427.32,487.29"/>
    </edge>
    <edge id=":1535132397_5" function="internal">
        <lane id=":1535132397_5_0" index="0" disallow="tram rail_urban rail rail_electric rail_fast ship container cable_car subway aircraft wheelchair scooter drone" speed="3.65" length="4.67" shape="431.03,475.19 430.80,476.61 430.24,477.31 429.35,477.28 428.12,476.52"/>
    </edge>
    <edge id=":1535132397_6" function="internal">
        <lane id=":1535132397_6_0" index="0" disallow="tram rail_urban rail rail_electric rail_fast ship container cable_car subway aircraft wheelchair scooter drone" speed="6.78" length="9.31" shape="425.75,484.48 427.70,482.99 428.74,481.16 428.88,479.01 428.12,476.52"/>
    </edge>
    <edge id=":1535132397_7" function="internal">
        <lane id=":1535132397_7_0" index="0" disallow="tram rail_urban rail rail_electric rail_fast ship container cable_car subway aircraft wheelchair scooter drone" speed="13.89" length="14.33" shape="425.75,484.48 438.44,477.81"/>
    </edge>
    <edge id=":1535132397_8" function="internal">
        <lane id=":1535132397_8_0" index="0" disallow="tram rail_urban rail rail_electric rail_fast ship container cable_car subway aircraft wheelchair scooter drone" speed="3.66" length="1.45" shape="425.75,484.48 427.20,484.59"/>
    </edge>
    <edge id=":1535132397_11" function="internal">
        <lane id=":1535132397_11_0" index="0" disallow="tram rail_urban rail rail_electric rail_fast ship container cable_car subway aircraft wheelchair scooter drone" speed="3.66" length="3.26" shape="427.20,484.59 427.95,485.10 427.99,486.00 427.32,487.29"/>
    </edge>
    <edge id=":1535132399_0" function="internal">
        <lane id=":1535132399_0_0" index="0" disallow="tram rail_urban rail rail_electric rail_fast ship container cable_car subway aircraft wheelchair scooter drone" speed="3.65" length="4.67" shape="727.95,-37.98 729.39,-37.88 730.13,-37.38 730.18,-36.48 729.53,-35.20"/>
    </edge>
    <edge id=":1535132420_0" function="internal">
        <lane id=":1535132420_0_0" index="0" allow="pedestrian delivery bicycle" speed="5.96" length="7.24" shape="548.86,429.74 547.92,428.72 546.51,428.35 544.65,428.64 542.32,429.59"/>
    </edge>
    <edge id=":1535132420_1" function="internal">
        <lane id=":1535132420_1_0" index="0" allow="pedestrian delivery bicycle" speed="9.72" length="13.08" shape="548.86,429.74 542.79,418.15"/>
    </edge>
    <edge id=":1535132420_2" function="internal">
        <lane id=":1535132420_2_0" index="0" allow="pedestrian delivery bicycle" speed="8.77" length="13.12" shape="548.86,429.74 548.50,427.21 549.23,423.91 550.77,420.52 552.82,417.72"/>
    </edge>
    <edge id=":1535132420_3" function="internal">
        <lane id=":1535132420_3_0" index="0" allow="pedestrian delivery bicycle" speed="3.65" length="1.44" shape="548.86,429.74 549.00,428.30"/>
    </edge>
    <edge id=":1535132420_16" function="internal">
        <lane id=":1535132420_16_0" index="0" allow="pedestrian delivery bicycle" speed="3.65" length="3.23" shape="549.00,428.30 549.52,427.57 550.41,427.55 551.69,428.23"/>
    </edge>
    <edge id=":1535132420_4" function="internal">
        <lane id=":1535132420_4_0" index="0" allow="pedestrian delivery bicycle" speed="7.54" length="9.50" shape="555.12,419.94 553.01,422.43 551.73,424.64 551.29,426.57 551.69,428.23"/>
    </edge>
    <edge id=":1535132420_5" function="internal">
        <lane id=":1535132420_5_0" index="0" disallow="tram rail_urban rail rail_electric rail_fast ship container cable_car subway aircraft wheelchair scooter drone" speed="13.89" length="16.09" shape="555.12,419.94 552.29,422.65 549.10,425.28 545.72,427.65 542.32,429.59"/>
    </edge>
    <edge id=":1535132420_6" function="internal">
        <lane id=":1535132420_6_0" index="0" disallow="tram rail_urban rail rail_electric rail_fast ship container cable_car subway aircraft wheelchair scooter drone" speed="7.55" length="15.61" shape="555.12,419.94 551.57,422.71 548.33,423.34 545.40,421.82 542.79,418.15"/>
    </edge>
    <edge id=":1535132420_7" function="internal">
        <lane id=":1535132420_7_0" index="0" disallow="tram rail_urban rail rail_electric rail_fast ship container cable_car subway aircraft wheelchair scooter drone" speed="3.65" length="1.44" shape="555.12,419.94 553.71,420.25"/>
    </edge>
    <edge id=":1535132420_17" function="internal">