<?xml version="1.0" encoding="UTF-8"?>

<!-- generated on 2026-02-21T00:45:08.760492+05:30 by Eclipse SUMO netedit 1.26.0
<neteditConfiguration xmlns:xsi="http://www.w3.org/2001/XMLSchema-instance" xsi:noNamespaceSchemaLocation="http://sumo.dlr.de/xsd/neteditConfiguration.xsd">

    <input>
        <sumo-net-file value="C:\Users\divya\Downloads\SUMO2Unity-main\SUMO2Unity-main\Assets\Scenario\Sumo2Unity.net.xml"/>
    </input>

    <output>
        <output-file value="C:\Users\divya\Downloads\SUMO2Unity-main\SUMO2Unity-main\Assets\Scenario\Sumo2Unity.net.xml"/>
    </output>

    <processing>
        <geometry.min-radius.fix.railways value="false"/>
        <geometry.avoid-overlap value="false"/>
        <geometry.max-grade.fix value="false"/>
        <offset.disable-normalization value="true"/>
        <lefthand value="1"/>
    </processing>

    <junctions>
        <no-turnarounds value="true"/>
        <junctions.corner-detail value="5"/>
        <junctions.limit-turn-speed value="5.50"/>
        <rectangular-lane-cut value="0"/>
    </junctions>

    <pedestrian>
        <walkingareas value="0"/>
    </pedestrian>

</neteditConfiguration>
-->

<net version="1.20" junctionCornerDetail="5" lefthand="true" limitTurnSpeed="5.50" avoidOverlap="0" xmlns:xsi="http://www.w3.org/2001/XMLSchema-instance" xsi:noNamespaceSchemaLocation="http://sumo.dlr.de/xsd/net_file.xsd">

    <location netOffset="0.00,-0.00" convBoundary="-577.96,-352.28,485.58,362.95" origBoundary="-10000000000.00,-10000000000.00,10000000000.00,10000000000.00" projParameter="!"/>

    <edge id=":J100_0" function="internal">
        <lane id=":J100_0_0" index="0" speed="9.80" length="9.47" width="2.00" shape="-108.04,146.06 -110.63,145.04 -112.33,144.10 -113.77,142.80 -115.63,140.71"/>
    </edge>
    <edge id=":J100_1" function="internal">
        <lane id=":J100_1_0" index="0" speed="7.86" length="0.70" width="2.00" shape="-108.04,146.06 -108.72,145.91"/>
    </edge>
    <edge id=":J100_6" function="internal">
        <lane id=":J100_6_0" index="0" speed="7.86" length="9.42" width="2.00" shape="-108.72,145.91 -110.56,145.50 -112.92,145.74 -115.12,146.77 -117.15,148.60"/>
    </edge>
    <edge id=":J100_2" function="internal">
        <lane id=":J100_2_0" index="0" speed="6.90" length="7.69" width="2.00" shape="-115.65,149.92 -114.09,148.51 -112.42,147.71 -110.63,147.52 -108.73,147.94"/>
    </edge>
    <edge id=":J100_3" function="internal">
        <lane id=":J100_3_0" index="0" speed="7.11" length="10.21" width="2.00" shape="-115.65,149.92 -114.14,147.62 -113.63,145.32 -114.13,143.02 -115.63,140.71"/>
    </edge>
    <edge id=":J100_4" function="internal">
        <lane id=":J100_4_0" index="0" speed="6.08" length="7.29" width="2.00" shape="-117.14,142.03 -116.07,143.67 -115.71,145.32 -116.07,146.96 -117.15,148.60"/>
    </edge>
    <edge id=":J100_5" function="internal">
        <lane id=":J100_5_0" index="0" speed="9.80" length="10.47" width="2.00" shape="-117.14,142.03 -115.10,144.30 -113.46,145.75 -111.56,146.82 -108.73,147.94"/>
    </edge>
    <edge id=":J101_0" function="internal">
        <lane id=":J101_0_0" index="0" speed="9.80" length="9.71" width="2.00" shape="-134.97,118.48 -136.83,116.30 -137.93,114.61 -138.50,112.70 -138.76,109.88"/>
    </edge>
    <edge id=":J101_1" function="internal">
        <lane id=":J101_1_0" index="0" speed="7.09" length="10.96" width="2.00" shape="-134.97,118.48 -137.23,116.53 -139.59,115.73 -142.06,116.09 -144.63,117.61"/>
    </edge>
    <edge id=":J101_2" function="internal">
        <lane id=":J101_2_0" index="0" speed="6.06" length="7.83" width="2.00" shape="-143.38,119.18 -141.54,118.09 -139.78,117.83 -138.09,118.40 -136.48,119.79"/>
    </edge>
    <edge id=":J101_3" function="internal">
        <lane id=":J101_3_0" index="0" speed="9.45" length="10.79" width="2.00" shape="-143.38,119.18 -141.26,117.12 -139.78,114.89 -138.95,112.47 -138.76,109.88"/>
    </edge>
    <edge id=":J101_4" function="internal">
        <lane id=":J101_4_0" index="0" speed="8.61" length="8.89" width="2.00" shape="-140.76,109.98 -140.92,112.09 -141.62,114.06 -142.85,115.91 -144.63,117.61"/>
    </edge>
    <edge id=":J101_5" function="internal">
        <lane id=":J101_5_0" index="0" speed="9.80" length="11.02" width="2.00" shape="-140.76,109.98 -140.44,113.09 -139.75,115.35 -138.50,117.37 -136.48,119.79"/>
    </edge>
    <edge id=":J102_0" function="internal">
        <lane id=":J102_0_0" index="0" speed="4.99" length="3.12" width="2.00" shape="-141.32,70.84 -141.94,71.36 -142.37,71.97 -142.61,72.68 -142.66,73.49"/>
    </edge>
    <edge id=":J102_1" function="internal">
        <lane id=":J102_1_0" index="0" speed="3.18" length="1.04" width="2.00" shape="-140.66,73.39 -140.65,73.12 -140.57,72.88 -140.42,72.68 -140.22,72.50"/>
    </edge>
    <edge id=":J103_0" function="internal">
        <lane id=":J103_0_0" index="0" speed="9.24" length="9.34" width="2.00" shape="-100.64,47.92 -102.77,47.43 -104.72,46.42 -106.51,44.89 -108.11,42.85"/>
    </edge>
    <edge id=":J103_1" function="internal">
        <lane id=":J103_1_0" index="0" speed="9.80" length="11.30" width="2.00" shape="-100.64,47.92 -103.80,47.77 -106.22,48.17 -108.49,49.17 -111.19,50.87"/>
    </edge>
    <edge id=":J103_2" function="internal">
        <lane id=":J103_2_0" index="0" speed="9.80" length="9.95" width="2.00" shape="-110.09,52.54 -107.63,50.94 -105.76,50.04 -103.74,49.74 -100.84,49.91"/>
    </edge>
    <edge id=":J103_3" function="internal">
        <lane id=":J103_3_0" index="0" speed="7.08" length="11.27" width="2.00" shape="-110.09,52.54 -107.78,50.49 -106.68,48.19 -106.79,45.64 -108.11,42.85"/>
    </edge>
    <edge id=":J103_4" function="internal">
        <lane id=":J103_4_0" index="0" speed="6.05" length="8.05" width="2.00" shape="-109.78,43.95 -108.84,45.95 -108.76,47.77 -109.55,49.41 -111.19,50.87"/>
    </edge>
    <edge id=":J103_5" function="internal">
        <lane id=":J103_5_0" index="0" speed="9.80" length="11.10" width="2.00" shape="-109.78,43.95 -107.89,46.35 -105.77,48.14 -103.42,49.33 -100.84,49.91"/>
    </edge>
    <edge id=":J104_0" function="internal">
        <lane id=":J104_0_0" index="0" speed="6.78" length="9.11" shape="-69.50,53.20 -66.85,53.77 -64.92,54.86 -63.72,56.47 -63.25,58.60"/>
    </edge>
    <edge id=":J104_1" function="internal">
        <lane id=":J104_1_0" index="0" speed="6.04" length="8.52" width="2.00" shape="-63.79,46.56 -64.05,48.82 -65.05,50.35 -66.80,51.14 -69.29,51.21"/>
    </edge>
    <edge id=":J104_2" function="internal">
        <lane id=":J104_2_0" index="0" speed="13.89" length="12.05" shape="-63.79,46.56 -63.25,58.60"/>
    </edge>
    <edge id=":J105_0" function="internal">
        <lane id=":J105_0_0" index="0" speed="5.43" length="8.50" shape="-117.74,28.26 -118.88,25.93 -118.87,24.14 -117.71,22.90 -115.39,22.20"/>
    </edge>
    <edge id=":J105_1" function="internal">
        <lane id=":J105_1_0" index="0" speed="8.35" length="10.37" width="2.00" shape="-127.67,24.01 -125.54,24.11 -123.45,25.03 -121.41,26.78 -119.41,29.36"/>
    </edge>
    <edge id=":J105_2" function="internal">
        <lane id=":J105_2_0" index="0" speed="10.20" length="12.41" shape="-127.67,24.01 -115.39,22.20"/>
    </edge>
    <edge id=":J106_0" function="internal">
        <lane id=":J106_0_0" index="0" speed="6.42" length="8.76" shape="-50.66,138.25 -53.20,137.91 -55.05,136.97 -56.20,135.42 -56.66,133.27"/>
    </edge>
    <edge id=":J106_1" function="internal">
        <lane id=":J106_1_0" index="0" speed="6.23" length="8.54" width="2.00" shape="-56.11,145.27 -55.86,143.05 -54.87,141.47 -53.14,140.53 -50.68,140.25"/>
    </edge>
    <edge id=":J106_2" function="internal">
        <lane id=":J106_2_0" index="0" speed="13.89" length="12.01" shape="-56.11,145.27 -56.66,133.27"/>
    </edge>
    <edge id=":J107_0" function="internal">
        <lane id=":J107_0_0" index="0" speed="6.38" length="8.78" width="2.00" shape="9.25,133.99 8.78,136.16 7.61,137.69 5.75,138.60 3.20,138.88"/>
    </edge>
    <edge id=":J107_1" function="internal">
        <lane id=":J107_1_0" index="0" speed="9.80" length="12.34" width="2.00" shape="9.25,133.99 8.99,137.32 8.55,140.11 7.85,142.86 6.82,146.04"/>
    </edge>
    <edge id=":J107_2" function="internal">
        <lane id=":J107_2_0" index="0" speed="8.76" length="12.02" width="2.00" shape="9.25,133.99 9.49,137.06 10.55,139.70 12.42,141.90 15.10,143.67"/>
    </edge>
    <edge id=":J107_3" function="internal">
        <lane id=":J107_3_0" index="0" speed="7.90" length="9.70" width="2.00" shape="16.00,141.88 13.82,140.45 12.30,138.67 11.45,136.56 11.25,134.09"/>
    </edge>
    <edge id=":J107_4" function="internal">
        <lane id=":J107_4_0" index="0" speed="9.80" length="13.28" width="2.00" shape="16.00,141.88 12.82,140.47 9.80,139.56 6.68,139.06 3.20,138.88"/>
    </edge>
    <edge id=":J107_5" function="internal">
        <lane id=":J107_5_0" index="0" speed="6.92" length="11.88" width="2.00" shape="16.00,141.88 12.94,140.89 10.39,141.26 8.35,142.97 6.82,146.04"/>
    </edge>
    <edge id=":J107_6" function="internal">
        <lane id=":J107_6_0" index="0" speed="5.90" length="8.36" width="2.00" shape="8.64,146.66 9.75,144.49 11.19,143.26 12.98,142.99 15.10,143.67"/>
    </edge>
    <edge id=":J107_7" function="internal">
        <lane id=":J107_7_0" index="0" speed="9.80" length="12.88" width="2.00" shape="8.64,146.66 9.72,143.41 10.48,140.48 10.97,137.50 11.25,134.09"/>
    </edge>
    <edge id=":J107_8" function="internal">
        <lane id=":J107_8_0" index="0" speed="6.54" length="11.90" width="2.00" shape="8.64,146.66 9.32,143.29 8.64,140.87 6.60,139.40 3.20,138.88"/>
    </edge>
    <edge id=":J107_9" function="internal">
        <lane id=":J107_9_0" index="0" speed="5.42" length="7.88" width="2.00" shape="3.18,140.88 5.42,141.23 6.78,142.20 7.24,143.80 6.82,146.04"/>
    </edge>
    <edge id=":J107_10" function="internal">
        <lane id=":J107_10_0" index="0" speed="9.80" length="12.38" width="2.00" shape="3.18,140.88 6.52,141.03 9.34,141.45 12.06,142.29 15.10,143.67"/>
    </edge>
    <edge id=":J107_11" function="internal">
        <lane id=":J107_11_0" index="0" speed="7.37" length="11.91" width="2.00" shape="3.18,140.88 6.58,140.49 9.06,139.23 10.61,137.10 11.25,134.09"/>
    </edge>
    <edge id=":J108_0" function="internal">
        <lane id=":J108_0_0" index="0" speed="3.17" length="1.32" width="2.00" shape="0.73,163.89 0.58,164.21 0.36,164.44 0.09,164.58 -0.25,164.62"/>
    </edge>
    <edge id=":J108_1" function="internal">
        <lane id=":J108_1_0" index="0" speed="2.55" length="1.91" width="2.00" shape="0.73,163.89 2.58,164.40"/>
    </edge>
    <edge id=":J108_2" function="internal">
        <lane id=":J108_2_0" index="0" speed="4.83" length="3.93" width="2.00" shape="-0.28,166.62 0.73,166.49 1.55,166.08 2.16,165.38 2.58,164.40"/>
    </edge>
    <edge id=":J109_0" function="internal">
        <lane id=":J109_0_0" index="0" speed="6.44" length="8.77" shape="-49.49,163.85 -52.03,163.50 -53.88,162.55 -55.04,161.00 -55.49,158.86"/>
    </edge>
    <edge id=":J109_1" function="internal">
        <lane id=":J109_1_0" index="0" speed="6.22" length="8.54" width="2.00" shape="-54.95,170.85 -54.70,168.63 -53.71,167.05 -51.98,166.12 -49.52,165.84"/>
    </edge>
    <edge id=":J109_2" function="internal">
        <lane id=":J109_2_0" index="0" speed="13.89" length="12.01" shape="-54.95,170.85 -55.49,158.86"/>
    </edge>
    <edge id=":J110_0" function="internal">
        <lane id=":J110_0_0" index="0" speed="5.47" length="2.08" width="2.00" shape="13.49,89.70 13.51,89.09 13.45,88.67 13.26,88.28 12.92,87.78"/>
    </edge>
    <edge id=":J110_1" function="internal">
        <lane id=":J110_1_0" index="0" speed="9.80" length="0.69" width="2.00" shape="11.30,88.96 11.42,89.13 11.48,89.25 11.50,89.40 11.50,89.60"/>
    </edge>
    <edge id=":J112_0" function="internal">
        <lane id=":J112_0_0" index="0" speed="11.57" length="12.45" width="2.00" shape="70.63,166.30 68.53,166.57 65.85,166.18 62.60,165.11 58.77,163.38"/>
    </edge>
    <edge id=":J112_1" function="internal">
        <lane id=":J112_1_0" index="0" speed="13.89" length="13.63" shape="70.63,166.30 57.71,170.65"/>
    </edge>
    <edge id=":J112_2" function="internal">
        <lane id=":J112_2_0" index="0" speed="5.10" length="8.83" shape="57.87,165.17 60.28,166.73 61.06,168.16 60.21,169.47 57.71,170.65"/>
    </edge>
    <edge id=":J114_0" function="internal">
        <lane id=":J114_0_0" index="0" speed="6.85" length="9.17" shape="41.92,34.33 43.03,31.82 44.50,30.13 46.32,29.25 48.49,29.19"/>
    </edge>
    <edge id=":J114_1" function="internal">
        <lane id=":J114_1_0" index="0" speed="6.01" length="8.51" width="2.00" shape="36.57,27.44 38.74,28.12 40.04,29.39 40.47,31.26 40.02,33.72"/>
    </edge>
    <edge id=":J114_2" function="internal">
        <lane id=":J114_2_0" index="0" speed="13.89" length="12.05" shape="36.57,27.44 48.49,29.19"/>
    </edge>
    <edge id=":J115_0" function="internal">
        <lane id=":J115_0_0" index="0" speed="6.78" length="9.30" shape="68.24,38.29 69.48,35.73 71.03,34.05 72.88,33.24 75.03,33.32"/>
    </edge>
    <edge id=":J115_1" function="internal">
        <lane id=":J115_1_0" index="0" speed="5.95" length="8.51" width="2.00" shape="63.06,31.34 65.25,32.02 66.53,33.29 66.90,35.15 66.36,37.60"/>
    </edge>
    <edge id=":J115_2" function="internal">
        <lane id=":J115_2_0" index="0" speed="13.89" length="12.13" shape="63.06,31.34 75.03,33.32"/>
    </edge>
    <edge id=":J116_0" function="internal">
        <lane id=":J116_0_0" index="0" speed="4.80" length="4.85" width="2.00" shape="63.42,45.70 63.15,47.00 63.36,48.08 64.06,48.93 65.23,49.55"/>
    </edge>
    <edge id=":J116_1" function="internal">
        <lane id=":J116_1_0" index="0" speed="3.09" length="1.62" width="2.00" shape="65.91,47.67 65.52,47.46 65.28,47.18 65.21,46.82 65.30,46.38"/>
    </edge>
    <edge id=":J117_0" function="internal">
        <lane id=":J117_0_0" index="0" speed="7.14" length="8.42" width="2.00" shape="100.83,55.65 99.27,57.07 97.47,57.84 95.44,57.97 93.18,57.44"/>
    </edge>
    <edge id=":J117_1" function="internal">
        <lane id=":J117_1_0" index="0" speed="9.80" length="11.27" width="2.00" shape="100.83,55.65 98.88,58.15 97.57,60.24 96.59,62.50 95.60,65.51"/>
    </edge>
    <edge id=":J117_2" function="internal">
        <lane id=":J117_2_0" index="0" speed="9.80" length="10.50" width="2.00" shape="97.51,66.11 98.44,63.20 99.30,61.17 100.47,59.32 102.37,56.93"/>
    </edge>
    <edge id=":J117_3" function="internal">
        <lane id=":J117_3_0" index="0" speed="7.09" length="10.95" width="2.00" shape="97.51,66.11 97.98,63.16 97.42,60.74 95.82,58.83 93.18,57.44"/>
    </edge>
    <edge id=":J117_4" function="internal">
        <lane id=":J117_4_0" index="0" speed="6.06" length="7.82" width="2.00" shape="92.51,59.32 94.39,60.31 95.54,61.68 95.94,63.41 95.60,65.51"/>
    </edge>
    <edge id=":J117_5" function="internal">
        <lane id=":J117_5_0" index="0" speed="8.07" length="10.88" width="2.00" shape="92.51,59.32 95.40,59.99 98.01,59.81 100.33,58.79 102.37,56.93"/>
    </edge>
    <edge id=":J118_0" function="internal">
        <lane id=":J118_0_0" index="0" speed="5.18" length="9.36" width="2.00" shape="89.31,85.71 88.73,88.68 89.27,90.25 90.91,90.42 93.68,89.20"/>
    </edge>
    <edge id=":J118_1" function="internal">
        <lane id=":J118_1_0" index="0" speed="3.28" length="3.12" width="2.00" shape="92.68,87.47 91.76,87.88 91.21,87.82 91.03,87.29 91.22,86.31"/>
    </edge>
    <edge id=":J119_0" function="internal">
        <lane id=":J119_0_0" index="0" speed="8.46" length="10.53" shape="109.90,47.86 112.21,45.45 114.46,43.87 116.65,43.12 118.78,43.19"/>
    </edge>
    <edge id=":J119_1" function="internal">
        <lane id=":J119_1_0" index="0" speed="5.54" length="8.51" width="2.00" shape="106.60,40.42 108.88,41.30 109.93,42.61 109.76,44.37 108.36,46.58"/>
    </edge>
    <edge id=":J119_2" function="internal">
        <lane id=":J119_2_0" index="0" speed="13.89" length="12.50" shape="106.60,40.42 118.78,43.19"/>
    </edge>
    <edge id=":J120_0" function="internal">
        <lane id=":J120_0_0" index="0" speed="11.85" length="12.96" shape="149.57,56.96 152.58,55.13 155.34,53.64 158.20,52.82 161.52,53.01"/>
    </edge>
    <edge id=":J120_1" function="internal">
        <lane id=":J120_1_0" index="0" speed="5.24" length="8.93" width="2.00" shape="148.00,49.90 150.66,50.84 151.65,52.04 150.95,53.50 148.57,55.22"/>
    </edge>
    <edge id=":J120_2" function="internal">
        <lane id=":J120_2_0" index="0" speed="13.89" length="13.87" shape="148.00,49.90 161.52,53.01"/>
    </edge>
    <edge id=":J122_0" function="internal">
        <lane id=":J122_0_0" index="0" speed="9.61" length="11.27" width="2.00" shape="183.32,110.20 181.39,111.09 178.94,111.34 175.95,110.97 172.43,109.96"/>
    </edge>
    <edge id=":J122_1" function="internal">
        <lane id=":J122_1_0" index="0" speed="13.89" length="12.86" shape="183.32,110.20 172.92,117.76"/>
    </edge>
    <edge id=":J122_2" function="internal">
        <lane id=":J122_2_0" index="0" speed="5.24" length="8.59" shape="171.77,111.84 174.19,113.04 175.19,114.42 174.76,115.99 172.92,117.76"/>
    </edge>
    <edge id=":J123_0" function="internal">
        <lane id=":J123_0_0" index="0" speed="5.66" length="7.95" width="2.00" shape="43.78,150.12 42.86,152.16 41.54,153.28 39.81,153.49 37.69,152.78"/>
    </edge>
    <edge id=":J123_1" function="internal">
        <lane id=":J123_1_0" index="0" speed="6.77" length="8.81" width="2.00" shape="48.47,158.20 46.68,156.92 45.62,155.23 45.30,153.15 45.71,150.68"/>
    </edge>
    <edge id=":J123_2" function="internal">
        <lane id=":J123_2_0" index="0" speed="9.80" length="12.07" width="2.00" shape="48.47,158.20 37.69,152.78"/>
    </edge>
    <edge id=":J125_0" function="internal">
        <lane id=":J125_0_0" index="0" speed="6.41" length="8.61" width="2.00" shape="265.27,1.88 264.19,3.80 262.65,4.91 260.66,5.21 258.22,4.68"/>
    </edge>
    <edge id=":J125_1" function="internal">
        <lane id=":J125_1_0" index="0" speed="13.89" length="12.00" shape="265.27,1.88 261.13,13.14"/>
    </edge>
    <edge id=":J125_2" function="internal">
        <lane id=":J125_2_0" index="0" speed="6.18" length="8.55" shape="257.56,6.57 259.77,7.68 261.10,9.14 261.56,10.96 261.13,13.14"/>
    </edge>
    <edge id=":J126_0" function="internal">
        <lane id=":J126_0_0" index="0" speed="8.79" length="10.33" width="2.00" shape="193.27,-17.95 190.95,-19.09 189.12,-20.73 187.78,-22.86 186.92,-25.49"/>
    </edge>
    <edge id=":J126_1" function="internal">
        <lane id=":J126_1_0" index="0" speed="9.80" length="13.08" width="2.00" shape="193.27,-17.95 189.97,-18.96 186.95,-19.57 183.87,-19.86 180.41,-19.91"/>
    </edge>
    <edge id=":J126_2" function="internal">
        <lane id=":J126_2_0" index="0" speed="7.31" length="12.00" width="2.00" shape="193.27,-17.95 190.22,-18.50 187.67,-17.83 185.61,-15.94 184.04,-12.85"/>
    </edge>
    <edge id=":J126_3" function="internal">
        <lane id=":J126_3_0" index="0" speed="6.31" length="8.79" width="2.00" shape="185.93,-12.18 187.09,-14.49 188.59,-15.91 190.43,-16.44 192.61,-16.07"/>
    </edge>
    <edge id=":J126_4" function="internal">
        <lane id=":J126_4_0" index="0" speed="9.80" length="13.55" width="2.00" shape="185.93,-12.18 186.94,-15.56 187.44,-18.77 187.44,-22.01 186.92,-25.49"/>
    </edge>
    <edge id=":J126_5" function="internal">
        <lane id=":J126_5_0" index="0" speed="6.52" length="12.02" width="2.00" shape="185.93,-12.18 186.63,-15.59 185.94,-18.02 183.87,-19.46 180.41,-19.91"/>
    </edge>
    <edge id=":J126_6" function="internal">
        <lane id=":J126_6_0" index="0" speed="5.37" length="7.87" width="2.00" shape="180.43,-17.91 182.70,-17.61 184.05,-16.67 184.50,-15.08 184.04,-12.85"/>
    </edge>
    <edge id=":J126_7" function="internal">
        <lane id=":J126_7_0" index="0" speed="9.80" length="12.40" width="2.00" shape="180.43,-17.91 183.78,-17.87 186.63,-17.62 189.42,-17.05 192.61,-16.07"/>
    </edge>
    <edge id=":J126_8" function="internal">
        <lane id=":J126_8_0" index="0" speed="6.81" length="11.99" width="2.00" shape="180.43,-17.91 183.87,-18.41 186.10,-19.85 187.11,-22.21 186.92,-25.49"/>
    </edge>
    <edge id=":J126_9" function="internal">
        <lane id=":J126_9_0" index="0" speed="5.73" length="8.26" width="2.00" shape="184.96,-25.08 185.09,-22.84 184.37,-21.23 182.81,-20.25 180.41,-19.91"/>
    </edge>
    <edge id=":J126_10" function="internal">
        <lane id=":J126_10_0" index="0" speed="9.80" length="12.46" width="2.00" shape="184.96,-25.08 185.50,-21.76 185.52,-18.89 185.04,-16.06 184.04,-12.85"/>
    </edge>
    <edge id=":J126_11" function="internal">
        <lane id=":J126_11_0" index="0" speed="9.60" length="12.38" width="2.00" shape="184.96,-25.08 185.99,-21.94 187.61,-19.40 189.82,-17.44 192.61,-16.07"/>
    </edge>
    <edge id=":J127_0" function="internal">
        <lane id=":J127_0_0" index="0" speed="9.80" length="10.76" width="2.00" shape="175.74,-98.74 173.36,-96.84 170.95,-95.56 168.52,-94.90 166.05,-94.85"/>
    </edge>
    <edge id=":J127_1" function="internal">
        <lane id=":J127_1_0" index="0" speed="9.80" length="14.72" width="2.00" shape="175.74,-98.74 173.45,-95.97 172.08,-92.79 171.63,-89.19 172.08,-85.17"/>
    </edge>
    <edge id=":J127_2" function="internal">
        <lane id=":J127_2_0" index="0" speed="6.71" length="12.92" width="2.00" shape="175.74,-98.74 173.59,-95.97 173.29,-93.41 174.83,-91.04 178.21,-88.88"/>
    </edge>
    <edge id=":J127_3" function="internal">
        <lane id=":J127_3_0" index="0" speed="5.59" length="8.72" width="2.00" shape="179.08,-90.68 176.72,-92.17 175.60,-93.76 175.73,-95.47 177.10,-97.28"/>
    </edge>
    <edge id=":J127_4" function="internal">
        <lane id=":J127_4_0" index="0" speed="9.80" length="13.75" width="2.00" shape="179.08,-90.68 175.84,-92.17 172.74,-93.38 169.55,-94.28 166.05,-94.85"/>
    </edge>
    <edge id=":J127_5" function="internal">
        <lane id=":J127_5_0" index="0" speed="6.28" length="13.14" width="2.00" shape="179.08,-90.68 175.22,-91.98 172.77,-91.50 171.72,-89.23 172.08,-85.17"/>
    </edge>
    <edge id=":J127_6" function="internal">
        <lane id=":J127_6_0" index="0" speed="4.97" length="7.84" width="2.00" shape="174.03,-85.59 173.82,-88.01 174.44,-89.36 175.91,-89.65 178.21,-88.88"/>
    </edge>
    <edge id=":J127_7" function="internal">
        <lane id=":J127_7_0" index="0" speed="9.66" length="12.66" width="2.00" shape="174.03,-85.59 173.63,-89.07 174.01,-92.18 175.17,-94.92 177.10,-97.28"/>
    </edge>
    <edge id=":J127_8" function="internal">
        <lane id=":J127_8_0" index="0" speed="8.69" length="13.11" width="2.00" shape="174.03,-85.59 172.84,-89.40 171.11,-92.21 168.85,-94.03 166.05,-94.85"/>
    </edge>
    <edge id=":J127_9" function="internal">
        <lane id=":J127_9_0" index="0" speed="7.84" length="10.60" width="2.00" shape="165.84,-92.86 167.99,-92.19 169.75,-90.69 171.11,-88.35 172.08,-85.17"/>
    </edge>
    <edge id=":J127_10" function="internal">
        <lane id=":J127_10_0" index="0" speed="9.80" length="13.07" width="2.00" shape="165.84,-92.86 169.23,-92.32 172.20,-91.48 175.07,-90.34 178.21,-88.88"/>
    </edge>
    <edge id=":J127_11" function="internal">
        <lane id=":J127_11_0" index="0" speed="9.80" length="12.48" width="2.00" shape="165.84,-92.86 168.74,-92.90 171.59,-93.65 174.38,-95.11 177.10,-97.28"/>
    </edge>
    <edge id=":J128_0" function="internal">
        <lane id=":J128_0_0" index="0" speed="6.61" length="8.89" width="2.00" shape="99.31,-19.06 97.13,-19.40 95.47,-20.46 94.33,-22.25 93.71,-24.76"/>
    </edge>
    <edge id=":J128_1" function="internal">
        <lane id=":J128_1_0" index="0" speed="9.80" length="12.27" width="2.00" shape="99.31,-19.06 95.99,-19.08 93.19,-19.25 90.40,-19.58 87.11,-20.10"/>
    </edge>
    <edge id=":J128_2" function="internal">
        <lane id=":J128_2_0" index="0" speed="8.57" length="12.01" width="2.00" shape="99.31,-19.06 96.33,-18.62 93.83,-17.35 91.82,-15.26 90.31,-12.34"/>
    </edge>
    <edge id=":J128_3" function="internal">
        <lane id=":J128_3_0" index="0" speed="7.70" length="9.60" width="2.00" shape="92.17,-11.63 93.39,-13.98 94.99,-15.68 96.97,-16.70 99.34,-17.06"/>
    </edge>
    <edge id=":J128_4" function="internal">
        <lane id=":J128_4_0" index="0" speed="9.80" length="13.37" width="2.00" shape="92.17,-11.63 93.25,-14.95 93.84,-18.08 93.98,-21.27 93.71,-24.76"/>
    </edge>
    <edge id=":J128_5" function="internal">
        <lane id=":J128_5_0" index="0" speed="6.78" length="11.85" width="2.00" shape="92.17,-11.63 92.88,-14.84 92.28,-17.32 90.35,-19.08 87.11,-20.10"/>
    </edge>
    <edge id=":J128_6" function="internal">
        <lane id=":J128_6_0" index="0" speed="5.70" length="8.13" width="2.00" shape="86.78,-18.13 89.02,-17.42 90.36,-16.23 90.78,-14.53 90.31,-12.34"/>
    </edge>
    <edge id=":J128_7" function="internal">
        <lane id=":J128_7_0" index="0" speed="9.80" length="12.62" width="2.00" shape="86.78,-18.13 90.12,-17.60 93.03,-17.26 95.96,-17.09 99.34,-17.06"/>
    </edge>
    <edge id=":J128_8" function="internal">
        <lane id=":J128_8_0" index="0" speed="6.60" length="11.86" width="2.00" shape="86.78,-18.13 90.18,-18.04 92.47,-19.12 93.65,-21.36 93.71,-24.76"/>
    </edge>
    <edge id=":J128_9" function="internal">
        <lane id=":J128_9_0" index="0" speed="5.47" length="7.89" width="2.00" shape="91.72,-24.51 91.68,-22.25 90.90,-20.76 89.38,-20.04 87.11,-20.10"/>
    </edge>
    <edge id=":J128_10" function="internal">
        <lane id=":J128_10_0" index="0" speed="9.80" length="12.41" width="2.00" shape="91.72,-24.51 92.01,-21.17 91.92,-18.32 91.37,-15.52 90.31,-12.34"/>
    </edge>
    <edge id=":J128_11" function="internal">
        <lane id=":J128_11_0" index="0" speed="7.57" length="11.86" width="2.00" shape="91.72,-24.51 92.55,-21.23 94.09,-18.89 96.36,-17.50 99.34,-17.06"/>
    </edge>
    <edge id=":J129_0" function="internal">
        <lane id=":J129_0_0" index="0" speed="9.80" length="13.08" width="2.00" shape="83.62,-109.07 82.88,-105.70 82.52,-102.63 82.51,-99.54 82.82,-96.10"/>
    </edge>
    <edge id=":J129_1" function="internal">
        <lane id=":J129_1_0" index="0" speed="6.86" length="11.72" width="2.00" shape="83.62,-109.07 83.28,-105.85 84.13,-103.43 86.16,-101.82 89.39,-101.01"/>
    </edge>
    <edge id=":J129_2" function="internal">
        <lane id=":J129_2_0" index="0" speed="5.79" length="8.13" width="2.00" shape="89.60,-103.00 87.35,-103.56 85.92,-104.68 85.33,-106.35 85.56,-108.57"/>
    </edge>
    <edge id=":J129_3" function="internal">
        <lane id=":J129_3_0" index="0" speed="6.68" length="11.73" width="2.00" shape="89.60,-103.00 86.28,-102.88 84.04,-101.69 82.89,-99.43 82.82,-96.10"/>
    </edge>
    <edge id=":J129_4" function="internal">
        <lane id=":J129_4_0" index="0" speed="5.57" length="7.93" width="2.00" shape="84.81,-96.35 84.85,-98.60 85.63,-100.13 87.14,-100.93 89.39,-101.01"/>
    </edge>
    <edge id=":J129_5" function="internal">
        <lane id=":J129_5_0" index="0" speed="9.80" length="12.33" width="2.00" shape="84.81,-96.35 84.49,-99.67 84.48,-102.50 84.83,-105.31 85.56,-108.57"/>
    </edge>
    <edge id=":J130_0" function="internal">
        <lane id=":J130_0_0" index="0" speed="7.76" length="11.66" width="2.00" shape="0.36,-34.76 -3.23,-35.69 -5.82,-37.13 -7.40,-39.06 -7.97,-41.49"/>
    </edge>
    <edge id=":J130_1" function="internal">
        <lane id=":J130_1_0" index="0" speed="9.80" length="15.40" width="2.00" shape="0.36,-34.76 -3.41,-35.36 -7.26,-35.90 -11.12,-36.35 -14.92,-36.65"/>
    </edge>
    <edge id=":J130_2" function="internal">
        <lane id=":J130_2_0" index="0" speed="6.28" length="14.26" width="2.00" shape="0.36,-34.76 -4.24,-35.03 -6.50,-33.91 -6.42,-31.38 -4.00,-27.46"/>
    </edge>
    <edge id=":J130_3" function="internal">
        <lane id=":J130_3_0" index="0" speed="4.83" length="8.00" width="2.00" shape="-2.42,-28.69 -3.78,-30.89 -3.82,-32.31 -2.55,-32.94 0.03,-32.78"/>
    </edge>
    <edge id=":J130_4" function="internal">
        <lane id=":J130_4_0" index="0" speed="9.80" length="14.19" width="2.00" shape="-2.42,-28.69 -4.56,-31.65 -6.30,-34.70 -7.48,-37.94 -7.97,-41.49"/>
    </edge>
    <edge id=":J130_5" function="internal">
        <lane id=":J130_5_0" index="0" speed="9.80" length="15.25" width="2.00" shape="-2.42,-28.69 -5.41,-32.03 -8.48,-34.46 -11.65,-36.00 -14.92,-36.65"/>
    </edge>
    <edge id=":J130_6" function="internal">
        <lane id=":J130_6_0" index="0" speed="9.80" length="13.55" width="2.00" shape="-15.03,-34.65 -12.20,-34.08 -9.42,-32.69 -6.69,-30.48 -4.00,-27.46"/>
    </edge>
    <edge id=":J130_7" function="internal">
        <lane id=":J130_7_0" index="0" speed="9.80" length="15.18" width="2.00" shape="-15.03,-34.65 -11.27,-34.35 -7.48,-33.92 -3.70,-33.39 0.03,-32.78"/>
    </edge>
    <edge id=":J130_8" function="internal">
        <lane id=":J130_8_0" index="0" speed="6.92" length="11.44" width="2.00" shape="-15.03,-34.65 -11.87,-34.92 -9.64,-36.15 -8.34,-38.34 -7.97,-41.49"/>
    </edge>
    <edge id=":J130_9" function="internal">
        <lane id=":J130_9_0" index="0" speed="5.86" length="8.01" width="2.00" shape="-9.97,-41.44 -10.23,-39.23 -11.14,-37.70 -12.70,-36.83 -14.92,-36.65"/>
    </edge>
    <edge id=":J130_10" function="internal">
        <lane id=":J130_10_0" index="0" speed="9.80" length="15.42" width="2.00" shape="-9.97,-41.44 -9.41,-37.70 -8.09,-34.06 -6.21,-30.61 -4.00,-27.46"/>
    </edge>
    <edge id=":J130_11" function="internal">