<?xml version="1.0" encoding="UTF-8"?>

<!-- generated on 2026-02-20T12:29:14.781849+05:30 by Eclipse SUMO netedit 1.26.0
-->

<additional xmlns:xsi="http://www.w3.org/2001/XMLSchema-instance" xsi:noNamespaceSchemaLocation="http://sumo.dlr.de/xsd/additional_file.xsd">
    <!-- Shapes -->
    <poly id="po_0" type="Terrain" color="129,200,90" fill="0" layer="0.00" shape="-50.280000,386.220000 -310.230000,274.810000 -576.360000,80.470000 -640.730000,-189.380000 -149.310000,-384.710000 538.320000,-279.870000 334.070000,193.980000 -50.270000,386.350000"/>
</additional>
