<?xml version="1.0" encoding="UTF-8"?>
<routes xmlns:xsi="http://www.w3.org/2001/XMLSchema-instance" xsi:noNamespaceSchemaLocation="http://sumo.dlr.de/xsd/routes_file.xsd">

    <vType id="motorcycle_ind" vClass="motorcycle" latAlignment="arbitrary" minGapLat="0.1" maxSpeed="15.0" length="2.0" width="0.8" accel="2.5" decel="4.5"/>
    <vType id="car_ind" vClass="passenger" latAlignment="arbitrary" minGapLat="0.3" maxSpeed="15.0" length="4.5" width="1.8" accel="2.0" decel="4.0"/>
    <vType id="auto_ind" vClass="taxi" latAlignment="arbitrary" minGapLat="0.2" maxSpeed="12.0" length="2.8" width="1.4" guiShape="rickshaw" accel="1.5" decel="3.5"/>
    <vType id="bus_ind" vClass="bus" latAlignment="center" minGapLat="0.5" maxSpeed="10.0" length="10.0" width="2.5" accel="1.0" decel="3.0"/>
        <trip id="0" type="motorcycle_ind" depart="2.19" from="-140111396#2" to="140111396#2" departPos="random_free" departSpeed="max"/>
    <trip id="1" type="auto_ind" depart="4.96" from="1475456268#3" to="-1475456268#3" departPos="random_free" departSpeed="max"/>
    <trip id="2" type="motorcycle_ind" depart="6.16" from="140112587#2" to="-140112579#2" departPos="random_free" departSpeed="max"/>
    <trip id="3" type="auto_ind" depart="6.44" from="-E8" to="-140112584#0" departPos="random_free" departSpeed="max"/>
    <trip id="4" type="motorcycle_ind" depart="7.25" from="140111417#3" to="-140112584#3" departPos="random_free" departSpeed="max"/>
    <trip id="5" type="auto_ind" depart="7.79" from="-140111417#3" to="-140111417#0" departPos="random_free" departSpeed="max"/>
    <trip id="6" type="bus_ind" depart="8.04" from="E3" to="-140111396#8" departPos="random_free" departSpeed="max"/>
    <trip id="7" type="motorcycle_ind" depart="8.85" from="-140112579#3" to="1475456268#1" departPos="random_free" departSpeed="max"/>
    <trip id="8" type="auto_ind" depart="9.52" from="140112584#3" to="-140111415#1" departPos="random_free" departSpeed="max"/>
    <trip id="9" type="motorcycle_ind" depart="9.94" from="140112584#4" to="E4.186" departPos="random_free" departSpeed="max"/>
    <trip id="10" type="motorcycle_ind" depart="10.25" from="140111396#0" to="-670380636#1" departPos="random_free" departSpeed="max"/>
    <trip id="11" type="car_ind" depart="10.70" from="E4" to="-1475456268#0" departPos="random_free" departSpeed="max"/>
    <trip id="12" type="motorcycle_ind" depart="11.14" from="140111417#3" to="E4" departPos="random_free" departSpeed="max"/>
    <trip id="13" type="motorcycle_ind" depart="13.90" from="-E4.171" to="-140111396#7" departPos="random_free" departSpeed="max"/>
    <trip id="14" type="motorcycle_ind" depart="14.51" from="-140111417#2" to="-140111396#8" departPos="random_free" departSpeed="max"/>
    <trip id="15" type="bus_ind" depart="15.48" from="140112583#1" to="-140111415#1" departPos="random_free" departSpeed="max"/>
    <trip id="16" type="car_ind" depart="19.00" from="-140112584#4" to="-140112579#3" departPos="random_free" departSpeed="max"/>
    <trip id="17" type="car_ind" depart="19.12" from="-1480562496" to="-140111396#0" departPos="random_free" departSpeed="max"/>
    <trip id="18" type="auto_ind" depart="19.18" from="140111406#0" to="-140112584#4" departPos="random_free" departSpeed="max"/>
    <trip id="19" type="auto_ind" depart="20.51" from="-E7" to="1475456268#4" departPos="random_free" departSpeed="max"/>
    <trip id="20" type="motorcycle_ind" depart="21.76" from="140112583#2" to="-E3" departPos="random_free" departSpeed="max"/>
    <trip id="21" type="car_ind" depart="28.08" from="1480562496" to="1475456268#1" departPos="random_free" departSpeed="max"/>
    <trip id="22" type="motorcycle_ind" depart="28.41" from="-140112579#2" to="-140112587#1" departPos="random_free" departSpeed="max"/>
    <trip id="23" type="bus_ind" depart="29.07" from="-140111415#1" to="140112584#0" departPos="random_free" departSpeed="max"/>
    <trip id="24" type="motorcycle_ind" depart="30.35" from="-E1" to="140111406#0" departPos="random_free" departSpeed="max"/>
    <trip id="25" type="car_ind" depart="30.50" from="140112584#5" to="1475456268#4" departPos="random_free" departSpeed="max"/>
    <trip id="26" type="motorcycle_ind" depart="30.77" from="140111415#1" to="-140111417#0" departPos="random_free" departSpeed="max"/>
    <trip id="27" type="car_ind" depart="31.21" from="140112582#1" to="140112579#2" departPos="random_free" departSpeed="max"/>
    <trip id="28" type="car_ind" depart="31.55" from="-140111406#2" to="140111396#4" departPos="random_free" departSpeed="max"/>
    <trip id="29" type="motorcycle_ind" depart="32.87" from="140111396#0" to="-140111406#1" departPos="random_free" departSpeed="max"/>
    <trip id="30" type="motorcycle_ind" depart="33.35" from="140112584#0" to="E1" departPos="random_free" departSpeed="max"/>
    <trip id="31" type="motorcycle_ind" depart="33.82" from="-E3" to="-140112587#2" departPos="random_free" departSpeed="max"/>
    <trip id="32" type="motorcycle_ind" depart="36.62" from="670380636#3" to="E0" departPos="random_free" departSpeed="max"/>
    <trip id="33" type="auto_ind" depart="37.91" from="140112587#2" to="-140111417#3" departPos="random_free" departSpeed="max"/>
    <trip id="34" type="motorcycle_ind" depart="38.94" from="-140111417#2" to="140111396#2" departPos="random_free" departSpeed="max"/>
    <trip id="35" type="motorcycle_ind" depart="39.30" from="-140112582#1" to="-140112584#5" departPos="random_free" departSpeed="max"/>
    <trip id="36" type="motorcycle_ind" depart="40.95" from="-E4.171" to="E5" departPos="random_free" departSpeed="max"/>
    <trip id="37" type="motorcycle_ind" depart="42.31" from="140111396#7" to="E1" departPos="random_free" departSpeed="max"/>
    <trip id="38" type="motorcycle_ind" depart="43.36" from="-140111406#2" to="140112584#2" departPos="random_free" departSpeed="max"/>
    <trip id="39" type="car_ind" depart="43.42" from="1475456268#0" to="670380636#1" departPos="random_free" departSpeed="max"/>
    <trip id="40" type="car_ind" depart="43.79" from="140112579#2" to="140111415#0" departPos="random_free" departSpeed="max"/>
    <trip id="41" type="motorcycle_ind" depart="43.96" from="E3" to="-1475456268#3" departPos="random_free" departSpeed="max"/>
    <trip id="42" type="auto_ind" depart="44.44" from="140111415#0" to="140111396#0" departPos="random_free" departSpeed="max"/>
    <trip id="43" type="motorcycle_ind" depart="48.46" from="-1475456268#0" to="1475456268#3" departPos="random_free" departSpeed="max"/>
    <trip id="44" type="auto_ind" depart="48.58" from="140111406#2" to="670380636#1" departPos="random_free" departSpeed="max"/>
    <trip id="45" type="auto_ind" depart="49.07" from="140111396#2" to="1475456268#0" departPos="random_free" departSpeed="max"/>
    <trip id="46" type="motorcycle_ind" depart="49.61" from="-140111406#1" to="-670380636#1" departPos="random_free" departSpeed="max"/>
    <trip id="47" type="motorcycle_ind" depart="50.43" from="140112584#0" to="140112584#5" departPos="random_free" departSpeed="max"/>
    <trip id="48" type="bus_ind" depart="51.97" from="140112582#1" to="-140112584#0" departPos="random_free" departSpeed="max"/>
    <trip id="49" type="auto_ind" depart="52.21" from="-140111396#4" to="E4" departPos="random_free" departSpeed="max"/>
    <trip id="50" type="motorcycle_ind" depart="52.29" from="-E0" to="-140111417#3" departPos="random_free" departSpeed="max"/>
    <trip id="51" type="car_ind" depart="53.85" from="140112584#3" to="1475456268#3" departPos="random_free" departSpeed="max"/>
    <trip id="52" type="motorcycle_ind" depart="54.04" from="-140112584#0" to="1475456268#3" departPos="random_free" departSpeed="max"/>
    <trip id="53" type="car_ind" depart="55.05" from="140111415#1" to="1475456268#4" departPos="random_free" departSpeed="max"/>
    <trip id="54" type="car_ind" depart="55.15" from="140111417#2" to="1475456268#3" departPos="random_free" departSpeed="max"/>
    <trip id="55" type="auto_ind" depart="55.19" from="140112584#4" to="140111396#8" departPos="random_free" departSpeed="max"/>
    <trip id="56" type="auto_ind" depart="55.53" from="1475456268#4" to="-E4.171" departPos="random_free" departSpeed="max"/>
    <trip id="57" type="car_ind" depart="55.56" from="140112582#1" to="-140111396#4" departPos="random_free" departSpeed="max"/>
    <trip id="58" type="car_ind" depart="58.55" from="E4.186" to="E3" departPos="random_free" departSpeed="max"/>
    <trip id="59" type="car_ind" depart="59.79" from="-140111415#1" to="E3" departPos="random_free" departSpeed="max"/>
    <trip id="60" type="auto_ind" depart="59.91" from="140112583#2" to="-140112584#0" departPos="random_free" departSpeed="max"/>
    <trip id="61" type="bus_ind" depart="60.35" from="-E1" to="670380636#3" departPos="random_free" departSpeed="max"/>
    <trip id="62" type="motorcycle_ind" depart="60.42" from="670380636#3" to="-E4.171" departPos="random_free" departSpeed="max"/>
    <trip id="63" type="car_ind" depart="60.63" from="140112584#2" to="140111396#7" departPos="random_free" departSpeed="max"/>
    <trip id="64" type="motorcycle_ind" depart="61.19" from="-140112579#2" to="140112584#4" departPos="random_free" departSpeed="max"/>
    <trip id="65" type="motorcycle_ind" depart="62.74" from="140112579#2" to="-140112582#1" departPos="random_free" departSpeed="max"/>
    <trip id="66" type="car_ind" depart="65.54" from="-140112584#3" to="140112579#3" departPos="random_free" departSpeed="max"/>
    <trip id="67" type="car_ind" depart="66.50" from="140111396#2" to="-140112583#1" departPos="random_free" departSpeed="max"/>
    <trip id="68" type="car_ind" depart="67.89" from="-140112584#5" to="140111415#0" departPos="random_free" departSpeed="max"/>
    <trip id="69" type="auto_ind" depart="68.74" from="-140112587#1" to="-140111406#2" departPos="random_free" departSpeed="max"/>
    <trip id="70" type="auto_ind" depart="69.75" from="-140111417#3" to="140111417#2" departPos="random_free" departSpeed="max"/>
    <trip id="71" type="motorcycle_ind" depart="74.67" from="-E0" to="-140112584#3" departPos="random_free" departSpeed="max"/>
    <trip id="72" type="car_ind" depart="75.12" from="-E0" to="140112583#2" departPos="random_free" departSpeed="max"/>
    <trip id="73" type="auto_ind" depart="75.88" from="1475456268#4" to="-140111417#2" departPos="random_free" departSpeed="max"/>
    <trip id="74" type="car_ind" depart="79.89" from="140111396#0" to="-670380636#1" departPos="random_free" departSpeed="max"/>
    <trip id="75" type="motorcycle_ind" depart="80.42" from="140112582#1" to="E5" departPos="random_free" departSpeed="max"/>
    <trip id="76" type="motorcycle_ind" depart="80.70" from="-E8" to="1475456268#4" departPos="random_free" departSpeed="max"/>
    <trip id="77" type="motorcycle_ind" depart="80.74" from="140112584#0" to="1475456268#4" departPos="random_free" departSpeed="max"/>
    <trip id="78" type="car_ind" depart="81.85" from="1480562496" to="E4.186" departPos="random_free" departSpeed="max"/>
    <trip id="79" type="car_ind" depart="82.17" from="140111415#0" to="E3" departPos="random_free" departSpeed="max"/>
    <trip id="80" type="bus_ind" depart="82.54" from="E4.186" to="E4" departPos="random_free" departSpeed="max"/>
    <trip id="81" type="auto_ind" depart="82.60" from="-140112584#5" to="-140112583#2" departPos="random_free" departSpeed="max"/>
    <trip id="82" type="bus_ind" depart="82.79" from="-E5" to="140111415#1" departPos="random_free" departSpeed="max"/>
    <trip id="83" type="auto_ind" depart="82.99" from="140112584#3" to="-140111396#4" departPos="random_free" departSpeed="max"/>
    <trip id="84" type="car_ind" depart="84.26" from="-E3" to="E1" departPos="random_free" departSpeed="max"/>
    <trip id="85" type="car_ind" depart="85.34" from="140112582#1" to="-140111396#7" departPos="random_free" departSpeed="max"/>
    <trip id="86" type="motorcycle_ind" depart="86.71" from="-140112584#0" to="670380636#3" departPos="random_free" departSpeed="max"/>
    <trip id="87" type="car_ind" depart="89.46" from="-140112583#2" to="-140111415#0" departPos="random_free" departSpeed="max"/>
    <trip id="88" type="motorcycle_ind" depart="89.97" from="-140112582#1" to="1480562496" departPos="random_free" departSpeed="max"/>
    <trip id="89" type="car_ind" depart="90.08" from="140111396#4" to="E7" departPos="random_free" departSpeed="max"/>
    <trip id="90" type="bus_ind" depart="90.17" from="-670380636#3" to="-140112584#3" departPos="random_free" departSpeed="max"/>
    <trip id="91" type="motorcycle_ind" depart="90.92" from="-140111406#0" to="-140111417#2" departPos="random_free" departSpeed="max"/>
    <trip id="92" type="motorcycle_ind" depart="91.48" from="-1475456268#4" to="1475456268#4" departPos="random_free" departSpeed="max"/>
    <trip id="93" type="motorcycle_ind" depart="92.46" from="-E1" to="670380636#1" departPos="random_free" departSpeed="max"/>
    <trip id="94" type="motorcycle_ind" depart="92.50" from="-140112579#3" to="-140111396#2" departPos="random_free" departSpeed="max"/>
    <trip id="95" type="auto_ind" depart="93.19" from="140111396#8" to="-1480562496" departPos="random_free" departSpeed="max"/>
    <trip id="96" type="car_ind" depart="93.62" from="-140112582#1" to="-E4.171" departPos="random_free" departSpeed="max"/>
    <trip id="97" type="car_ind" depart="95.00" from="140112579#3" to="-140111396#8" departPos="random_free" departSpeed="max"/>
    <trip id="98" type="car_ind" depart="95.76" from="-140111417#3" to="140112584#2" departPos="random_free" departSpeed="max"/>
    <trip id="99" type="motorcycle_ind" depart="97.31" from="140112584#0" to="E4.186" departPos="random_free" departSpeed="max"/>
    <trip id="100" type="motorcycle_ind" depart="97.39" from="140111417#3" to="1475456268#4" departPos="random_free" departSpeed="max"/>
    <trip id="101" type="bus_ind" depart="99.20" from="-140112587#2" to="-1475456268#0" departPos="random_free" departSpeed="max"/>
    <trip id="102" type="car_ind" depart="100.85" from="-140111396#7" to="-140112582#1" departPos="random_free" departSpeed="max"/>
    <trip id="103" type="bus_ind" depart="100.94" from="-1480562496" to="-1475456268#0" departPos="random_free" departSpeed="max"/>
    <trip id="104" type="bus_ind" depart="101.30" from="-140111396#4" to="E1" departPos="random_free" departSpeed="max"/>
    <trip id="105" type="motorcycle_ind" depart="102.92" from="670380636#1" to="-1475456268#0" departPos="random_free" departSpeed="max"/>
    <trip id="106" type="motorcycle_ind" depart="103.31" from="1475456268#4" to="-140112584#2" departPos="random_free" departSpeed="max"/>
    <trip id="107" type="motorcycle_ind" depart="106.29" from="-140111396#7" to="140111396#2" departPos="random_free" departSpeed="max"/>
    <trip id="108" type="car_ind" depart="108.11" from="1480562496" to="140111396#7" departPos="random_free" departSpeed="max"/>
    <trip id="109" type="car_ind" depart="110.30" from="1475456268#4" to="-E4" departPos="random_free" departSpeed="max"/>
    <trip id="110" type="motorcycle_ind" depart="110.60" from="140111396#8" to="-140111396#2" departPos="random_free" departSpeed="max"/>
    <trip id="111" type="car_ind" depart="111.12" from="140111415#1" to="140112584#3" departPos="random_free" departSpeed="max"/>
    <trip id="112" type="car_ind" depart="113.27" from="140111406#1" to="140112582#1" departPos="random_free" departSpeed="max"/>
    <trip id="113" type="motorcycle_ind" depart="114.04" from="140111415#1" to="140111396#4" departPos="random_free" departSpeed="max"/>
    <trip id="114" type="motorcycle_ind" depart="116.60" from="140111417#3" to="-140112579#2" departPos="random_free" departSpeed="max"/>
    <trip id="115" type="motorcycle_ind" depart="117.72" from="670380636#3" to="140111406#1" departPos="random_free" departSpeed="max"/>
    <trip id="116" type="motorcycle_ind" depart="117.97" from="140111415#1" to="1475456268#0" departPos="random_free" departSpeed="max"/>
    <trip id="117" type="car_ind" depart="119.21" from="-140111396#6" to="140111396#7" departPos="random_free" departSpeed="max"/>
    <trip id="118" type="motorcycle_ind" depart="120.06" from="-1475456268#3" to="140111406#0" departPos="random_free" departSpeed="max"/>
    <trip id="119" type="bus_ind" depart="120.17" from="-140111406#1" to="140112587#1" departPos="random_free" departSpeed="max"/>
    <trip id="120" type="bus_ind" depart="121.59" from="-140112584#0" to="-140111396#6" departPos="random_free" departSpeed="max"/>
    <trip id="121" type="auto_ind" depart="121.72" from="140111415#0" to="1475456268#1" departPos="random_free" departSpeed="max"/>
    <trip id="122" type="motorcycle_ind" depart="121.83" from="-140111396#8" to="-140111396#6" departPos="random_free" departSpeed="max"/>
    <trip id="123" type="motorcycle_ind" depart="123.06" from="-670380636#1" to="-140111415#0" departPos="random_free" departSpeed="max"/>
    <trip id="124" type="motorcycle_ind" depart="124.01" from="140112584#3" to="-140112584#3" departPos="random_free" departSpeed="max"/>
    <trip id="125" type="auto_ind" depart="125.81" from="-140112579#3" to="-E4" departPos="random_free" departSpeed="max"/>
    <trip id="126" type="motorcycle_ind" depart="125.92" from="670380636#1" to="-140111396#6" departPos="random_free" departSpeed="max"/>
    <trip id="127" type="car_ind" depart="126.60" from="-E4" to="-140112587#2" departPos="random_free" departSpeed="max"/>
    <trip id="128" type="motorcycle_ind" depart="127.00" from="140112579#2" to="-140112583#1" departPos="random_free" departSpeed="max"/>
    <trip id="129" type="car_ind" depart="127.41" from="-E7" to="E1" departPos="random_free" departSpeed="max"/>
    <trip id="130" type="auto_ind" depart="127.73" from="-140112579#3" to="1480562496" departPos="random_free" departSpeed="max"/>
    <trip id="131" type="motorcycle_ind" depart="128.48" from="670380636#1" to="-140111415#1" departPos="random_free" departSpeed="max"/>
    <trip id="132" type="motorcycle_ind" depart="130.26" from="-140111396#0" to="-140112584#2" departPos="random_free" departSpeed="max"/>
    <trip id="133" type="motorcycle_ind" depart="131.28" from="140111396#2" to="-140111396#7" departPos="random_free" departSpeed="max"/>
    <trip id="134" type="motorcycle_ind" depart="132.03" from="670380636#3" to="140112582#1" departPos="random_free" departSpeed="max"/>
    <trip id="135" type="auto_ind" depart="133.97" from="-140112584#0" to="140111396#0" departPos="random_free" departSpeed="max"/>
    <trip id="136" type="car_ind" depart="135.07" from="140112584#4" to="-140111396#4" departPos="random_free" departSpeed="max"/>
    <trip id="137" type="motorcycle_ind" depart="135.33" from="E3" to="140111417#3" departPos="random_free" departSpeed="max"/>
    <trip id="138" type="car_ind" depart="136.79" from="-140112584#2" to="-140112579#3" departPos="random_free" departSpeed="max"/>
    <trip id="139" type="motorcycle_ind" depart="136.99" from="-670380636#3" to="-140111396#6" departPos="random_free" departSpeed="max"/>
    <trip id="140" type="motorcycle_ind" depart="138.70" from="140112582#1" to="140111406#0" departPos="random_free" departSpeed="max"/>
    <trip id="141" type="motorcycle_ind" depart="138.72" from="140112582#1" to="140111396#7" departPos="random_free" departSpeed="max"/>
    <trip id="142" type="motorcycle_ind" depart="139.12" from="140111396#4" to="-140111417#3" departPos="random_free" departSpeed="max"/>
    <trip id="143" type="car_ind" depart="139.85" from="-140111417#0" to="-140111415#1" departPos="random_free" departSpeed="max"/>
    <trip id="144" type="auto_ind" depart="140.37" from="-140112579#3" to="140111396#6" departPos="random_free" departSpeed="max"/>
    <trip id="145" type="car_ind" depart="141.43" from="670380636#3" to="-140112584#0" departPos="random_free" departSpeed="max"/>
    <trip id="146" type="auto_ind" depart="142.09" from="1475456268#4" to="-670380636#1" departPos="random_free" departSpeed="max"/>
    <trip id="147" type="auto_ind" depart="142.92" from="-670380636#3" to="-140111415#0" departPos="random_free" departSpeed="max"/>
    <trip id="148" type="motorcycle_ind" depart="143.37" from="-140111415#1" to="E0" departPos="random_free" departSpeed="max"/>
    <trip id="149" type="auto_ind" depart="145.68" from="-1475456268#1" to="140112587#2" departPos="random_free" departSpeed="max"/>
    <trip id="150" type="car_ind" depart="145.75" from="-140112583#1" to="E7" departPos="random_free" departSpeed="max"/>
    <trip id="151" type="motorcycle_ind" depart="145.79" from="140112584#4" to="-140112579#2" departPos="random_free" departSpeed="max"/>
    <trip id="152" type="car_ind" depart="146.16" from="140112582#1" to="-140112579#2" departPos="random_free" departSpeed="max"/>
    <trip id="153" type="motorcycle_ind" depart="146.59" from="140111396#0" to="670380636#3" departPos="random_free" departSpeed="max"/>
    <trip id="154" type="car_ind" depart="147.30" from="-140111406#2" to="-670380636#3" departPos="random_free" departSpeed="max"/>
    <trip id="155" type="car_ind" depart="147.61" from="-E3" to="-1475456268#4" departPos="random_free" departSpeed="max"/>
    <trip id="156" type="motorcycle_ind" depart="148.46" from="-140111406#0" to="140111415#0" departPos="random_free" departSpeed="max"/>
    <trip id="157" type="motorcycle_ind" depart="150.82" from="140111396#2" to="140112584#0" departPos="random_free" departSpeed="max"/>
    <trip id="158" type="motorcycle_ind" depart="151.36" from="E4" to="140112584#3" departPos="random_free" departSpeed="max"/>
    <trip id="159" type="bus_ind" depart="151.55" from="140111415#0" to="E1" departPos="random_free" departSpeed="max"/>
    <trip id="160" type="motorcycle_ind" depart="151.89" from="-140112584#2" to="-140111406#0" departPos="random_free" departSpeed="max"/>
    <trip id="161" type="car_ind" depart="153.96" from="140112584#4" to="-140111396#4" departPos="random_free" departSpeed="max"/>
    <trip id="162" type="auto_ind" depart="154.21" from="-140112583#2" to="-1480562496" departPos="random_free" departSpeed="max"/>
    <trip id="163" type="auto_ind" depart="155.57" from="-140111406#1" to="-140112584#2" departPos="random_free" departSpeed="max"/>
    <trip id="164" type="motorcycle_ind" depart="156.63" from="140112583#1" to="-140111396#8" departPos="random_free" departSpeed="max"/>
    <trip id="165" type="motorcycle_ind" depart="160.52" from="140112579#2" to="-140112584#4" departPos="random_free" departSpeed="max"/>
    <trip id="166" type="auto_ind" depart="161.73" from="-140111396#8" to="-140112587#2" departPos="random_free" departSpeed="max"/>
    <trip id="167" type="car_ind" depart="163.84" from="-E1" to="-140112583#1" departPos="random_free" departSpeed="max"/>
    <trip id="168" type="car_ind" depart="163.95" from="E4.186" to="-140111406#1" departPos="random_free" departSpeed="max"/>
    <trip id="169" type="motorcycle_ind" depart="164.89" from="-670380636#3" to="-140112584#4" departPos="random_free" departSpeed="max"/>
    <trip id="170" type="auto_ind" depart="165.66" from="140111417#3" to="140112584#5" departPos="random_free" departSpeed="max"/>
    <trip id="171" type="auto_ind" depart="166.45" from="140111396#8" to="-140111406#0" departPos="random_free" departSpeed="max"/>
    <trip id="172" type="car_ind" depart="166.78" from="1475456268#0" to="140111417#3" departPos="random_free" departSpeed="max"/>
    <trip id="173" type="motorcycle_ind" depart="167.33" from="-E1" to="140111396#4" departPos="random_free" departSpeed="max"/>
    <trip id="174" type="car_ind" depart="169.02" from="-140111406#0" to="-140112587#1" departPos="random_free" departSpeed="max"/>
    <trip id="175" type="motorcycle_ind" depart="170.34" from="-1480562496" to="1475456268#3" departPos="random_free" departSpeed="max"/>
    <trip id="176" type="motorcycle_ind" depart="170.76" from="140111396#0" to="-140111396#0" departPos="random_free" departSpeed="max"/>
    <trip id="177" type="motorcycle_ind" depart="170.90" from="140112584#5" to="-140111396#4" departPos="random_free" departSpeed="max"/>
    <trip id="178" type="auto_ind" depart="171.31" from="-140112579#2" to="670380636#3" departPos="random_free" departSpeed="max"/>
    <trip id="179" type="motorcycle_ind" depart="171.48" from="670380636#3" to="140112584#3" departPos="random_free" departSpeed="max"/>
    <trip id="180" type="motorcycle_ind" depart="171.93" from="-670380636#3" to="-140112587#1" departPos="random_free" departSpeed="max"/>
    <trip id="181" type="motorcycle_ind" depart="172.33" from="1480562496" to="140111406#0" departPos="random_free" departSpeed="max"/>
    <trip id="182" type="motorcycle_ind" depart="175.01" from="-E5" to="140111417#0" departPos="random_free" departSpeed="max"/>
    <trip id="183" type="motorcycle_ind" depart="175.27" from="-140112584#5" to="E3" departPos="random_free" departSpeed="max"/>
    <trip id="184" type="car_ind" depart="175.41" from="140111417#2" to="140112584#0" departPos="random_free" departSpeed="max"/>
    <trip id="185" type="motorcycle_ind" depart="177.28" from="-140111396#8" to="140111415#1" departPos="random_free" departSpeed="max"/>
    <trip id="186" type="bus_ind" depart="177.74" from="140112579#2" to="-140111406#2" departPos="random_free" departSpeed="max"/>
    <trip id="187" type="auto_ind" depart="178.38" from="-140111406#1" to="140112584#0" departPos="random_free" departSpeed="max"/>
    <trip id="188" type="bus_ind" depart="179.03" from="-140112584#4" to="140112587#1" departPos="random_free" departSpeed="max"/>
    <trip id="189" type="motorcycle_ind" depart="179.47" from="-E3" to="E0" departPos="random_free" departSpeed="max"/>
    <trip id="190" type="motorcycle_ind" depart="179.83" from="-1480562496" to="140111415#1" departPos="random_free" departSpeed="max"/>
    <trip id="191" type="auto_ind" depart="181.20" from="140111415#1" to="140111396#0" departPos="random_free" departSpeed="max"/>
    <trip id="192" type="motorcycle_ind" depart="182.58" from="140111417#0" to="-E3" departPos="random_free" departSpeed="max"/>
    <trip id="193" type="motorcycle_ind" depart="182.81" from="-E3" to="-E4" departPos="random_free" departSpeed="max"/>
    <trip id="194" type="auto_ind" depart="183.21" from="1475456268#4" to="140112587#2" departPos="random_free" departSpeed="max"/>
    <trip id="195" type="motorcycle_ind" depart="183.42" from="-1480562496" to="E3" departPos="random_free" departSpeed="max"/>
    <trip id="196" type="car_ind" depart="183.78" from="-1480562496" to="140112583#2" departPos="random_free" departSpeed="max"/>
    <trip id="197" type="car_ind" depart="183.79" from="-140111417#0" to="140111396#2" departPos="random_free" departSpeed="max"/>
    <trip id="198" type="motorcycle_ind" depart="184.48" from="140111396#2" to="-140112583#1" departPos="random_free" departSpeed="max"/>
    <trip id="199" type="motorcycle_ind" depart="187.76" from="1475456268#4" to="-E3" departPos="random_free" departSpeed="max"/>
    <trip id="200" type="motorcycle_ind" depart="188.74" from="1475456268#1" to="-140111417#3" departPos="random_free" departSpeed="max"/>
    <trip id="201" type="motorcycle_ind" depart="189.62" from="140112579#3" to="E7" departPos="random_free" departSpeed="max"/>
    <trip id="202" type="auto_ind" depart="190.40" from="-140112584#3" to="140111406#0" departPos="random_free" departSpeed="max"/>
    <trip id="203" type="motorcycle_ind" depart="190.93" from="-E4.171" to="1475456268#4" departPos="random_free" departSpeed="max"/>
    <trip id="204" type="motorcycle_ind" depart="191.09" from="E4" to="670380636#3" departPos="random_free" departSpeed="max"/>
    <trip id="205" type="motorcycle_ind" depart="191.52" from="-140111396#8" to="-140111406#1" departPos="random_free" departSpeed="max"/>
    <trip id="206" type="auto_ind" depart="192.32" from="140111396#2" to="140111396#7" departPos="random_free" departSpeed="max"/>
    <trip id="207" type="car_ind" depart="192.50" from="140112587#2" to="140111396#6" departPos="random_free" departSpeed="max"/>
    <trip id="208" type="car_ind" depart="192.59" from="1475456268#1" to="-140112582#1" departPos="random_free" departSpeed="max"/>
    <trip id="209" type="motorcycle_ind" depart="193.78" from="140112579#2" to="-140112584#4" departPos="random_free" departSpeed="max"/>
    <trip id="210" type="motorcycle_ind" depart="197.88" from="140111396#4" to="140112583#2" departPos="random_free" departSpeed="max"/>
    <trip id="211" type="auto_ind" depart="197.92" from="-140111406#1" to="140112583#1" departPos="random_free" departSpeed="max"/>
    <trip id="212" type="car_ind" depart="198.32" from="140111406#1" to="140111406#2" departPos="random_free" departSpeed="max"/>
    <trip id="213" type="car_ind" depart="198.36" from="140111415#0" to="140111406#0" departPos="random_free" departSpeed="max"/>
    <trip id="214" type="motorcycle_ind" depart="198.47" from="-1475456268#1" to="1475456268#3" departPos="random_free" departSpeed="max"/>
    <trip id="215" type="motorcycle_ind" depart="198.76" from="-E1" to="-140111417#3" departPos="random_free" departSpeed="max"/>
    <trip id="216" type="auto_ind" depart="199.05" from="140112584#2" to="-140111415#0" departPos="random_free" departSpeed="max"/>
    <trip id="217" type="motorcycle_ind" depart="199.07" from="140111417#0" to="-1475456268#1" departPos="random_free" departSpeed="max"/>
    <trip id="218" type="motorcycle_ind" depart="203.38" from="140112587#1" to="-140111417#2" departPos="random_free" departSpeed="max"/>
    <trip id="219" type="car_ind" depart="205.85" from="-E3" to="140111406#2" departPos="random_free" departSpeed="max"/>
    <trip id="220" type="motorcycle_ind" depart="206.27" from="140112584#3" to="140112584#0" departPos="random_free" departSpeed="max"/>
    <trip id="221" type="motorcycle_ind" depart="206.99" from="140111417#2" to="-1475456268#4" departPos="random_free" departSpeed="max"/>